<?xml version="1.0" encoding="UTF-8"?>

<!-- generated on 2025-03-27 13:41:07 by Eclipse SUMO netedit Version 1.21.0
<neteditConfiguration xmlns:xsi="http://www.w3.org/2001/XMLSchema-instance" xsi:noNamespaceSchemaLocation="http://sumo.dlr.de/xsd/neteditConfiguration.xsd">

    <input>
        <sumocfg-file value="C:\Code\Final Year\rl-traffic-light-optimisation\sumo-files\single-intersection-single-lane\single-intersection-single-lane.sumocfg"/>
        <additional-files value="C:\Code\Final Year\rl-traffic-light-optimisation\sumo-files\single-intersection-single-lane\single-intersection-single-lane.add.xml"/>
        <route-files value="C:\Code\Final Year\rl-traffic-light-optimisation\sumo-files\single-intersection-single-lane\single-intersection-single-lane.rou.xml"/>
        <sumo-net-file value="C:\Code\Final Year\rl-traffic-light-optimisation\sumo-files\single-intersection-single-lane\single-intersection-single-lane.net.xml"/>
    </input>

    <output>
        <output-file value="C:\Code\Final Year\rl-traffic-light-optimisation\sumo-files\single-intersection-single-lane\single-intersection-single-lane.net.xml"/>
    </output>

    <processing>
        <geometry.min-radius.fix.railways value="false"/>
        <geometry.max-grade.fix value="false"/>
        <offset.disable-normalization value="true"/>
        <lefthand value="0"/>
    </processing>

    <junctions>
        <no-turnarounds value="true"/>
        <junctions.corner-detail value="5"/>
        <junctions.limit-turn-speed value="5.50"/>
        <rectangular-lane-cut value="0"/>
    </junctions>

    <pedestrian>
        <walkingareas value="0"/>
    </pedestrian>

</neteditConfiguration>
-->

<net version="1.20" junctionCornerDetail="5" limitTurnSpeed="5.50" xmlns:xsi="http://www.w3.org/2001/XMLSchema-instance" xsi:noNamespaceSchemaLocation="http://sumo.dlr.de/xsd/net_file.xsd">

    <location netOffset="0.00,0.00" convBoundary="-150.00,-150.00,150.00,150.00" origBoundary="-10000000000.00,-10000000000.00,10000000000.00,10000000000.00" projParameter="!"/>

    <edge id=":J_0" function="internal">
        <lane id=":J_0_0" index="0" speed="6.51" length="9.03" shape="-1.60,7.20 -1.95,4.75 -3.00,3.00 -4.75,1.95 -7.20,1.60"/>
    </edge>
    <edge id=":J_1" function="internal">
        <lane id=":J_1_0" index="0" speed="13.89" length="14.40" shape="-1.60,7.20 -1.60,-7.20"/>
    </edge>
    <edge id=":J_2" function="internal">
        <lane id=":J_2_0" index="0" speed="8.00" length="4.07" shape="-1.60,7.20 -1.05,3.35 -0.96,3.20"/>
    </edge>
    <edge id=":J_12" function="internal">
        <lane id=":J_12_0" index="0" speed="8.00" length="10.13" shape="-0.96,3.20 0.60,0.60 3.35,-1.05 7.20,-1.60"/>
    </edge>
    <edge id=":J_3" function="internal">
        <lane id=":J_3_0" index="0" speed="6.51" length="9.03" shape="7.20,1.60 4.75,1.95 3.00,3.00 1.95,4.75 1.60,7.20"/>
    </edge>
    <edge id=":J_4" function="internal">
        <lane id=":J_4_0" index="0" speed="13.89" length="14.40" shape="7.20,1.60 -7.20,1.60"/>
    </edge>
    <edge id=":J_5" function="internal">
        <lane id=":J_5_0" index="0" speed="8.00" length="4.07" shape="7.20,1.60 3.35,1.05 3.20,0.96"/>
    </edge>
    <edge id=":J_13" function="internal">
        <lane id=":J_13_0" index="0" speed="8.00" length="10.13" shape="3.20,0.96 0.60,-0.60 -1.05,-3.35 -1.60,-7.20"/>
    </edge>
    <edge id=":J_6" function="internal">
        <lane id=":J_6_0" index="0" speed="6.51" length="9.03" shape="1.60,-7.20 1.95,-4.75 3.00,-3.00 4.75,-1.95 7.20,-1.60"/>
    </edge>
    <edge id=":J_7" function="internal">
        <lane id=":J_7_0" index="0" speed="13.89" length="14.40" shape="1.60,-7.20 1.60,7.20"/>
    </edge>
    <edge id=":J_8" function="internal">
        <lane id=":J_8_0" index="0" speed="8.00" length="4.07" shape="1.60,-7.20 1.05,-3.35 0.96,-3.20"/>
    </edge>
    <edge id=":J_14" function="internal">
        <lane id=":J_14_0" index="0" speed="8.00" length="10.13" shape="0.96,-3.20 -0.60,-0.60 -3.35,1.05 -7.20,1.60"/>
    </edge>
    <edge id=":J_9" function="internal">
        <lane id=":J_9_0" index="0" speed="6.51" length="9.03" shape="-7.20,-1.60 -4.75,-1.95 -3.00,-3.00 -1.95,-4.75 -1.60,-7.20"/>
    </edge>
    <edge id=":J_10" function="internal">
        <lane id=":J_10_0" index="0" speed="13.89" length="14.40" shape="-7.20,-1.60 7.20,-1.60"/>
    </edge>
    <edge id=":J_11" function="internal">
        <lane id=":J_11_0" index="0" speed="8.00" length="4.07" shape="-7.20,-1.60 -3.35,-1.05 -3.20,-0.96"/>
    </edge>
    <edge id=":J_15" function="internal">
        <lane id=":J_15_0" index="0" speed="8.00" length="10.13" shape="-3.20,-0.96 -0.60,0.60 1.05,3.35 1.60,7.20"/>
    </edge>

    <edge id="EJ" from="E" to="J" priority="-1">
        <lane id="EJ_0" index="0" speed="13.89" length="142.80" shape="150.00,1.60 7.20,1.60"/>
    </edge>
    <edge id="JE" from="J" to="E" priority="-1">
        <lane id="JE_0" index="0" speed="13.89" length="142.80" shape="7.20,-1.60 150.00,-1.60"/>
    </edge>
    <edge id="JN" from="J" to="N" priority="-1">
        <lane id="JN_0" index="0" speed="13.89" length="142.80" shape="1.60,7.20 1.60,150.00"/>
    </edge>
    <edge id="JS" from="J" to="S" priority="-1">
        <lane id="JS_0" index="0" speed="13.89" length="142.80" shape="-1.60,-7.20 -1.60,-150.00"/>
    </edge>
    <edge id="JW" from="J" to="W" priority="-1">
        <lane id="JW_0" index="0" speed="13.89" length="142.80" shape="-7.20,1.60 -150.00,1.60"/>
    </edge>
    <edge id="NJ" from="N" to="J" priority="-1">
        <lane id="NJ_0" index="0" speed="13.89" length="142.80" shape="-1.60,150.00 -1.60,7.20"/>
    </edge>
    <edge id="SJ" from="S" to="J" priority="-1">
        <lane id="SJ_0" index="0" speed="13.89" length="142.80" shape="1.60,-150.00 1.60,-7.20"/>
    </edge>
    <edge id="WJ" from="W" to="J" priority="-1">
        <lane id="WJ_0" index="0" speed="13.89" length="142.80" shape="-150.00,-1.60 -7.20,-1.60"/>
    </edge>

    <tlLogic id="tlJ" type="static" programID="0" offset="0">
        <phase duration="42" state="GGgrrrGGgrrr"/>
        <phase duration="3"  state="yyyrrryyyrrr"/>
        <phase duration="42" state="rrrGGgrrrGGg"/>
        <phase duration="3"  state="rrryyyrrryyy"/>
    </tlLogic>

    <junction id="E" type="dead_end" x="150.00" y="0.00" incLanes="JE_0" intLanes="" shape="150.00,0.00 150.00,-3.20 150.00,0.00"/>
    <junction id="J" type="traffic_light" x="0.00" y="0.00" incLanes="NJ_0 EJ_0 SJ_0 WJ_0" intLanes=":J_0_0 :J_1_0 :J_12_0 :J_3_0 :J_4_0 :J_13_0 :J_6_0 :J_7_0 :J_14_0 :J_9_0 :J_10_0 :J_15_0" shape="-3.20,7.20 3.20,7.20 3.64,4.98 4.20,4.20 4.98,3.64 5.98,3.31 7.20,3.20 7.20,-3.20 4.98,-3.64 4.20,-4.20 3.64,-4.98 3.31,-5.98 3.20,-7.20 -3.20,-7.20 -3.64,-4.98 -4.20,-4.20 -4.98,-3.64 -5.98,-3.31 -7.20,-3.20 -7.20,3.20 -4.98,3.64 -4.20,4.20 -3.64,4.98 -3.31,5.98">
        <request index="0"  response="000000000000" foes="000100010000" cont="0"/>
        <request index="1"  response="100000100000" foes="111100110000" cont="0"/>
        <request index="2"  response="100111100000" foes="110111110000" cont="1"/>
        <request index="3"  response="000010000000" foes="100010000000" cont="0"/>
        <request index="4"  response="000110000111" foes="100110000111" cont="0"/>
        <request index="5"  response="111110000110" foes="111110000110" cont="1"/>
        <request index="6"  response="000000000000" foes="010000000100" cont="0"/>
        <request index="7"  response="100000100000" foes="110000111100" cont="0"/>
        <request index="8"  response="100000100011" foes="110000110111" cont="1"/>
        <request index="9"  response="000000000010" foes="000000100010" cont="0"/>
        <request index="10" response="000111000110" foes="000111100110" cont="0"/>
        <request index="11" response="000110011110" foes="000110111110" cont="1"/>
    </junction>
    <junction id="N" type="dead_end" x="0.00" y="150.00" incLanes="JN_0" intLanes="" shape="0.00,150.00 3.20,150.00 0.00,150.00"/>
    <junction id="S" type="dead_end" x="0.00" y="-150.00" incLanes="JS_0" intLanes="" shape="0.00,-150.00 -3.20,-150.00 0.00,-150.00"/>
    <junction id="W" type="dead_end" x="-150.00" y="0.00" incLanes="JW_0" intLanes="" shape="-150.00,0.00 -150.00,3.20 -150.00,0.00"/>

    <junction id=":J_12_0" type="internal" x="-0.96" y="3.20" incLanes=":J_2_0 SJ_0" intLanes=":J_4_0 :J_5_0 :J_6_0 :J_7_0 :J_10_0 :J_11_0"/>
    <junction id=":J_13_0" type="internal" x="3.20" y="0.96" incLanes=":J_5_0 WJ_0" intLanes=":J_1_0 :J_2_0 :J_7_0 :J_8_0 :J_9_0 :J_10_0"/>
    <junction id=":J_14_0" type="internal" x="0.96" y="-3.20" incLanes=":J_8_0 NJ_0" intLanes=":J_0_0 :J_1_0 :J_4_0 :J_5_0 :J_10_0 :J_11_0"/>
    <junction id=":J_15_0" type="internal" x="-3.20" y="-0.96" incLanes=":J_11_0 EJ_0" intLanes=":J_1_0 :J_2_0 :J_3_0 :J_4_0 :J_7_0 :J_8_0"/>

    <connection from="EJ" to="JN" fromLane="0" toLane="0" via=":J_3_0" tl="tlJ" linkIndex="3" dir="r" state="o"/>
    <connection from="EJ" to="JW" fromLane="0" toLane="0" via=":J_4_0" tl="tlJ" linkIndex="4" dir="s" state="o"/>
    <connection from="EJ" to="JS" fromLane="0" toLane="0" via=":J_5_0" tl="tlJ" linkIndex="5" dir="l" state="o"/>
    <connection from="NJ" to="JW" fromLane="0" toLane="0" via=":J_0_0" tl="tlJ" linkIndex="0" dir="r" state="O"/>
    <connection from="NJ" to="JS" fromLane="0" toLane="0" via=":J_1_0" tl="tlJ" linkIndex="1" dir="s" state="O"/>
    <connection from="NJ" to="JE" fromLane="0" toLane="0" via=":J_2_0" tl="tlJ" linkIndex="2" dir="l" state="o"/>
    <connection from="SJ" to="JE" fromLane="0" toLane="0" via=":J_6_0" tl="tlJ" linkIndex="6" dir="r" state="O"/>
    <connection from="SJ" to="JN" fromLane="0" toLane="0" via=":J_7_0" tl="tlJ" linkIndex="7" dir="s" state="O"/>
    <connection from="SJ" to="JW" fromLane="0" toLane="0" via=":J_8_0" tl="tlJ" linkIndex="8" dir="l" state="o"/>
    <connection from="WJ" to="JS" fromLane="0" toLane="0" via=":J_9_0" tl="tlJ" linkIndex="9" dir="r" state="o"/>
    <connection from="WJ" to="JE" fromLane="0" toLane="0" via=":J_10_0" tl="tlJ" linkIndex="10" dir="s" state="o"/>
    <connection from="WJ" to="JN" fromLane="0" toLane="0" via=":J_11_0" tl="tlJ" linkIndex="11" dir="l" state="o"/>

    <connection from=":J_0" to="JW" fromLane="0" toLane="0" dir="r" state="M"/>
    <connection from=":J_1" to="JS" fromLane="0" toLane="0" dir="s" state="M"/>
    <connection from=":J_2" to="JE" fromLane="0" toLane="0" via=":J_12_0" dir="l" state="m"/>
    <connection from=":J_12" to="JE" fromLane="0" toLane="0" dir="l" state="M"/>
    <connection from=":J_3" to="JN" fromLane="0" toLane="0" dir="r" state="M"/>
    <connection from=":J_4" to="JW" fromLane="0" toLane="0" dir="s" state="M"/>
    <connection from=":J_5" to="JS" fromLane="0" toLane="0" via=":J_13_0" dir="l" state="m"/>
    <connection from=":J_13" to="JS" fromLane="0" toLane="0" dir="l" state="M"/>
    <connection from=":J_6" to="JE" fromLane="0" toLane="0" dir="r" state="M"/>
    <connection from=":J_7" to="JN" fromLane="0" toLane="0" dir="s" state="M"/>
    <connection from=":J_8" to="JW" fromLane="0" toLane="0" via=":J_14_0" dir="l" state="m"/>
    <connection from=":J_14" to="JW" fromLane="0" toLane="0" dir="l" state="M"/>
    <connection from=":J_9" to="JS" fromLane="0" toLane="0" dir="r" state="M"/>
    <connection from=":J_10" to="JE" fromLane="0" toLane="0" dir="s" state="M"/>
    <connection from=":J_11" to="JN" fromLane="0" toLane="0" via=":J_15_0" dir="l" state="m"/>
    <connection from=":J_15" to="JN" fromLane="0" toLane="0" dir="l" state="M"/>

</net>
