<?xml version="1.0" encoding="UTF-8"?>

<!-- generated on 2025-03-14 20:47:47 by Eclipse SUMO netedit Version 1.21.0
-->

<routes xmlns:xsi="http://www.w3.org/2001/XMLSchema-instance" xsi:noNamespaceSchemaLocation="http://sumo.dlr.de/xsd/routes_file.xsd">
    <!-- Vehicles, persons and containers (sorted by depart) -->
    <flow id="f_1-7" begin="0.00" from="E0" to="E22" number="3600" period="exp(0.50)"/>
    <flow id="f_10-4" begin="0.00" from="E5" to="E30.201" number="3600" period="exp(0.50)"/>
    <flow id="f_11-5" begin="0.00" from="E4" to="E4.263" number="3600" period="exp(0.50)"/>
    <flow id="f_12-7" begin="0.00" from="E3" to="E22" number="3600" period="exp(0.50)"/>
    <flow id="f_2-11" begin="0.00" from="E1" to="-E42" number="3600" period="exp(0.50)"/>
    <flow id="f_3-9" begin="0.00" from="E2" to="E02" number="3600" period="exp(0.50)"/>
    <flow id="f_4-8" begin="0.00" from="-E3" to="E11.68" number="3600" period="exp(0.50)"/>
    <flow id="f_5-12" begin="0.00" from="-E4" to="-E3.285" number="3600" period="exp(0.50)"/>
    <flow id="f_6-1" begin="0.00" from="-E5" to="-E0.165" number="3600" period="exp(0.50)"/>
    <flow id="f_7-3" begin="0.00" from="-E2" to="-E2.167" number="3600" period="exp(0.50)"/>
    <flow id="f_8-6" begin="0.00" from="-E1" to="E5.260" number="3600" period="exp(0.50)"/>
    <flow id="f_9-3" begin="0.00" from="-E0" to="-E2.167" number="3600" period="exp(0.50)"/>
</routes>
