<?xml version="1.0" encoding="UTF-8"?>

<!-- generated on 2025-03-14 20:47:47 by Eclipse SUMO sumo Version 1.21.0
-->

<sumoConfiguration xmlns:xsi="http://www.w3.org/2001/XMLSchema-instance" xsi:noNamespaceSchemaLocation="http://sumo.dlr.de/xsd/sumoConfiguration.xsd">

    <input>
        <net-file value="grid_3x3.net.xml"/>
        <route-files value="grid_3x3.rou.xml"/>
        <additional-files value="grid_3x3.add.xml"/>
    </input>

</sumoConfiguration>
