<?xml version="1.0" encoding="UTF-8"?>

<!-- generated on 2025-03-14 20:47:47 by Eclipse SUMO netedit Version 1.21.0
<neteditConfiguration xmlns:xsi="http://www.w3.org/2001/XMLSchema-instance" xsi:noNamespaceSchemaLocation="http://sumo.dlr.de/xsd/neteditConfiguration.xsd">

    <input>
        <sumocfg-file value="C:\Code\Final Year\rl-traffic-light-optimisation\sumo-files\3x3\grid_3x3.sumocfg"/>
        <additional-files value="C:\Code\Final Year\rl-traffic-light-optimisation\sumo-files\3x3\grid_3x3.add.xml"/>
        <route-files value="C:\Code\Final Year\rl-traffic-light-optimisation\sumo-files\3x3\grid_3x3.rou.xml"/>
        <sumo-net-file value="C:\Code\Final Year\rl-traffic-light-optimisation\sumo-files\3x3\grid_3x3.net.xml"/>
    </input>

    <output>
        <output-file value="C:\Code\Final Year\rl-traffic-light-optimisation\sumo-files\3x3\grid_3x3.net.xml"/>
    </output>

    <processing>
        <geometry.min-radius.fix.railways value="false"/>
        <geometry.max-grade.fix value="false"/>
        <offset.disable-normalization value="true"/>
        <lefthand value="0"/>
    </processing>

    <junctions>
        <no-turnarounds value="true"/>
        <junctions.corner-detail value="5"/>
        <junctions.limit-turn-speed value="5.50"/>
        <rectangular-lane-cut value="0"/>
    </junctions>

    <pedestrian>
        <walkingareas value="0"/>
    </pedestrian>

</neteditConfiguration>
-->

<net version="1.20" junctionCornerDetail="5" limitTurnSpeed="5.50" xmlns:xsi="http://www.w3.org/2001/XMLSchema-instance" xsi:noNamespaceSchemaLocation="http://sumo.dlr.de/xsd/net_file.xsd">

    <location netOffset="0.00,0.00" convBoundary="0.00,0.00,1200.00,1200.00" origBoundary="-10000000000.00,-10000000000.00,10000000000.00,10000000000.00" projParameter="!"/>

    <edge id=":J1-4_0" function="internal">
        <lane id=":J1-4_0_0" index="0" speed="6.51" length="9.03" shape="298.40,907.20 298.05,904.75 297.00,903.00 295.25,901.95 292.80,901.60"/>
    </edge>
    <edge id=":J1-4_1" function="internal">
        <lane id=":J1-4_1_0" index="0" speed="16.67" length="14.40" shape="298.40,907.20 298.40,892.80"/>
    </edge>
    <edge id=":J1-4_2" function="internal">
        <lane id=":J1-4_2_0" index="0" speed="8.00" length="4.07" shape="298.40,907.20 298.95,903.35 299.04,903.20"/>
    </edge>
    <edge id=":J1-4_12" function="internal">
        <lane id=":J1-4_12_0" index="0" speed="8.00" length="10.13" shape="299.04,903.20 300.60,900.60 303.35,898.95 307.20,898.40"/>
    </edge>
    <edge id=":J1-4_3" function="internal">
        <lane id=":J1-4_3_0" index="0" speed="6.51" length="9.03" shape="307.20,901.60 304.75,901.95 303.00,903.00 301.95,904.75 301.60,907.20"/>
    </edge>
    <edge id=":J1-4_4" function="internal">
        <lane id=":J1-4_4_0" index="0" speed="16.67" length="14.40" shape="307.20,901.60 292.80,901.60"/>
    </edge>
    <edge id=":J1-4_5" function="internal">
        <lane id=":J1-4_5_0" index="0" speed="8.00" length="4.07" shape="307.20,901.60 303.35,901.05 303.20,900.96"/>
    </edge>
    <edge id=":J1-4_13" function="internal">
        <lane id=":J1-4_13_0" index="0" speed="8.00" length="10.13" shape="303.20,900.96 300.60,899.40 298.95,896.65 298.40,892.80"/>
    </edge>
    <edge id=":J1-4_6" function="internal">
        <lane id=":J1-4_6_0" index="0" speed="6.51" length="9.03" shape="301.60,892.80 301.95,895.25 303.00,897.00 304.75,898.05 307.20,898.40"/>
    </edge>
    <edge id=":J1-4_7" function="internal">
        <lane id=":J1-4_7_0" index="0" speed="16.67" length="14.40" shape="301.60,892.80 301.60,907.20"/>
    </edge>
    <edge id=":J1-4_8" function="internal">
        <lane id=":J1-4_8_0" index="0" speed="8.00" length="4.07" shape="301.60,892.80 301.05,896.65 300.96,896.80"/>
    </edge>
    <edge id=":J1-4_14" function="internal">
        <lane id=":J1-4_14_0" index="0" speed="8.00" length="10.13" shape="300.96,896.80 299.40,899.40 296.65,901.05 292.80,901.60"/>
    </edge>
    <edge id=":J1-4_9" function="internal">
        <lane id=":J1-4_9_0" index="0" speed="6.51" length="9.03" shape="292.80,898.40 295.25,898.05 297.00,897.00 298.05,895.25 298.40,892.80"/>
    </edge>
    <edge id=":J1-4_10" function="internal">
        <lane id=":J1-4_10_0" index="0" speed="16.67" length="14.40" shape="292.80,898.40 307.20,898.40"/>
    </edge>
    <edge id=":J1-4_11" function="internal">
        <lane id=":J1-4_11_0" index="0" speed="8.00" length="4.07" shape="292.80,898.40 296.65,898.95 296.80,899.04"/>
    </edge>
    <edge id=":J1-4_15" function="internal">
        <lane id=":J1-4_15_0" index="0" speed="8.00" length="10.13" shape="296.80,899.04 299.40,900.60 301.05,903.35 301.60,907.20"/>
    </edge>
    <edge id=":J1-5_0" function="internal">
        <lane id=":J1-5_0_0" index="0" speed="6.51" length="9.03" shape="298.40,607.20 298.05,604.75 297.00,603.00 295.25,601.95 292.80,601.60"/>
    </edge>
    <edge id=":J1-5_1" function="internal">
        <lane id=":J1-5_1_0" index="0" speed="16.67" length="14.40" shape="298.40,607.20 298.40,592.80"/>
    </edge>
    <edge id=":J1-5_2" function="internal">
        <lane id=":J1-5_2_0" index="0" speed="8.00" length="4.07" shape="298.40,607.20 298.95,603.35 299.04,603.20"/>
    </edge>
    <edge id=":J1-5_12" function="internal">
        <lane id=":J1-5_12_0" index="0" speed="8.00" length="10.13" shape="299.04,603.20 300.60,600.60 303.35,598.95 307.20,598.40"/>
    </edge>
    <edge id=":J1-5_3" function="internal">
        <lane id=":J1-5_3_0" index="0" speed="6.51" length="9.03" shape="307.20,601.60 304.75,601.95 303.00,603.00 301.95,604.75 301.60,607.20"/>
    </edge>
    <edge id=":J1-5_4" function="internal">
        <lane id=":J1-5_4_0" index="0" speed="16.67" length="14.40" shape="307.20,601.60 292.80,601.60"/>
    </edge>
    <edge id=":J1-5_5" function="internal">
        <lane id=":J1-5_5_0" index="0" speed="8.00" length="4.07" shape="307.20,601.60 303.35,601.05 303.20,600.96"/>
    </edge>
    <edge id=":J1-5_13" function="internal">
        <lane id=":J1-5_13_0" index="0" speed="8.00" length="10.13" shape="303.20,600.96 300.60,599.40 298.95,596.65 298.40,592.80"/>
    </edge>
    <edge id=":J1-5_6" function="internal">
        <lane id=":J1-5_6_0" index="0" speed="6.51" length="9.03" shape="301.60,592.80 301.95,595.25 303.00,597.00 304.75,598.05 307.20,598.40"/>
    </edge>
    <edge id=":J1-5_7" function="internal">
        <lane id=":J1-5_7_0" index="0" speed="16.67" length="14.40" shape="301.60,592.80 301.60,607.20"/>
    </edge>
    <edge id=":J1-5_8" function="internal">
        <lane id=":J1-5_8_0" index="0" speed="8.00" length="4.07" shape="301.60,592.80 301.05,596.65 300.96,596.80"/>
    </edge>
    <edge id=":J1-5_14" function="internal">
        <lane id=":J1-5_14_0" index="0" speed="8.00" length="10.13" shape="300.96,596.80 299.40,599.40 296.65,601.05 292.80,601.60"/>
    </edge>
    <edge id=":J1-5_9" function="internal">
        <lane id=":J1-5_9_0" index="0" speed="6.51" length="9.03" shape="292.80,598.40 295.25,598.05 297.00,597.00 298.05,595.25 298.40,592.80"/>
    </edge>
    <edge id=":J1-5_10" function="internal">
        <lane id=":J1-5_10_0" index="0" speed="16.67" length="14.40" shape="292.80,598.40 307.20,598.40"/>
    </edge>
    <edge id=":J1-5_11" function="internal">
        <lane id=":J1-5_11_0" index="0" speed="8.00" length="4.07" shape="292.80,598.40 296.65,598.95 296.80,599.04"/>
    </edge>
    <edge id=":J1-5_15" function="internal">
        <lane id=":J1-5_15_0" index="0" speed="8.00" length="10.13" shape="296.80,599.04 299.40,600.60 301.05,603.35 301.60,607.20"/>
    </edge>
    <edge id=":J1-6_0" function="internal">
        <lane id=":J1-6_0_0" index="0" speed="6.51" length="9.03" shape="298.40,307.20 298.05,304.75 297.00,303.00 295.25,301.95 292.80,301.60"/>
    </edge>
    <edge id=":J1-6_1" function="internal">
        <lane id=":J1-6_1_0" index="0" speed="16.67" length="14.40" shape="298.40,307.20 298.40,292.80"/>
    </edge>
    <edge id=":J1-6_2" function="internal">
        <lane id=":J1-6_2_0" index="0" speed="8.00" length="4.07" shape="298.40,307.20 298.95,303.35 299.04,303.20"/>
    </edge>
    <edge id=":J1-6_12" function="internal">
        <lane id=":J1-6_12_0" index="0" speed="8.00" length="10.13" shape="299.04,303.20 300.60,300.60 303.35,298.95 307.20,298.40"/>
    </edge>
    <edge id=":J1-6_3" function="internal">
        <lane id=":J1-6_3_0" index="0" speed="6.51" length="9.03" shape="307.20,301.60 304.75,301.95 303.00,303.00 301.95,304.75 301.60,307.20"/>
    </edge>
    <edge id=":J1-6_4" function="internal">
        <lane id=":J1-6_4_0" index="0" speed="16.67" length="14.40" shape="307.20,301.60 292.80,301.60"/>
    </edge>
    <edge id=":J1-6_5" function="internal">
        <lane id=":J1-6_5_0" index="0" speed="8.00" length="4.07" shape="307.20,301.60 303.35,301.05 303.20,300.96"/>
    </edge>
    <edge id=":J1-6_13" function="internal">
        <lane id=":J1-6_13_0" index="0" speed="8.00" length="10.13" shape="303.20,300.96 300.60,299.40 298.95,296.65 298.40,292.80"/>
    </edge>
    <edge id=":J1-6_6" function="internal">
        <lane id=":J1-6_6_0" index="0" speed="6.51" length="9.03" shape="301.60,292.80 301.95,295.25 303.00,297.00 304.75,298.05 307.20,298.40"/>
    </edge>
    <edge id=":J1-6_7" function="internal">
        <lane id=":J1-6_7_0" index="0" speed="16.67" length="14.40" shape="301.60,292.80 301.60,307.20"/>
    </edge>
    <edge id=":J1-6_8" function="internal">
        <lane id=":J1-6_8_0" index="0" speed="8.00" length="4.07" shape="301.60,292.80 301.05,296.65 300.96,296.80"/>
    </edge>
    <edge id=":J1-6_14" function="internal">
        <lane id=":J1-6_14_0" index="0" speed="8.00" length="10.13" shape="300.96,296.80 299.40,299.40 296.65,301.05 292.80,301.60"/>
    </edge>
    <edge id=":J1-6_9" function="internal">
        <lane id=":J1-6_9_0" index="0" speed="6.51" length="9.03" shape="292.80,298.40 295.25,298.05 297.00,297.00 298.05,295.25 298.40,292.80"/>
    </edge>
    <edge id=":J1-6_10" function="internal">
        <lane id=":J1-6_10_0" index="0" speed="16.67" length="14.40" shape="292.80,298.40 307.20,298.40"/>
    </edge>
    <edge id=":J1-6_11" function="internal">
        <lane id=":J1-6_11_0" index="0" speed="8.00" length="4.07" shape="292.80,298.40 296.65,298.95 296.80,299.04"/>
    </edge>
    <edge id=":J1-6_15" function="internal">
        <lane id=":J1-6_15_0" index="0" speed="8.00" length="10.13" shape="296.80,299.04 299.40,300.60 301.05,303.35 301.60,307.20"/>
    </edge>
    <edge id=":J2-4_0" function="internal">
        <lane id=":J2-4_0_0" index="0" speed="6.51" length="9.03" shape="598.40,907.20 598.05,904.75 597.00,903.00 595.25,901.95 592.80,901.60"/>
    </edge>
    <edge id=":J2-4_1" function="internal">
        <lane id=":J2-4_1_0" index="0" speed="16.67" length="14.40" shape="598.40,907.20 598.40,892.80"/>
    </edge>
    <edge id=":J2-4_2" function="internal">
        <lane id=":J2-4_2_0" index="0" speed="8.00" length="4.07" shape="598.40,907.20 598.95,903.35 599.04,903.20"/>
    </edge>
    <edge id=":J2-4_12" function="internal">
        <lane id=":J2-4_12_0" index="0" speed="8.00" length="10.13" shape="599.04,903.20 600.60,900.60 603.35,898.95 607.20,898.40"/>
    </edge>
    <edge id=":J2-4_3" function="internal">
        <lane id=":J2-4_3_0" index="0" speed="6.51" length="9.03" shape="607.20,901.60 604.75,901.95 603.00,903.00 601.95,904.75 601.60,907.20"/>
    </edge>
    <edge id=":J2-4_4" function="internal">
        <lane id=":J2-4_4_0" index="0" speed="16.67" length="14.40" shape="607.20,901.60 592.80,901.60"/>
    </edge>
    <edge id=":J2-4_5" function="internal">
        <lane id=":J2-4_5_0" index="0" speed="8.00" length="4.07" shape="607.20,901.60 603.35,901.05 603.20,900.96"/>
    </edge>
    <edge id=":J2-4_13" function="internal">
        <lane id=":J2-4_13_0" index="0" speed="8.00" length="10.13" shape="603.20,900.96 600.60,899.40 598.95,896.65 598.40,892.80"/>
    </edge>
    <edge id=":J2-4_6" function="internal">
        <lane id=":J2-4_6_0" index="0" speed="6.51" length="9.03" shape="601.60,892.80 601.95,895.25 603.00,897.00 604.75,898.05 607.20,898.40"/>
    </edge>
    <edge id=":J2-4_7" function="internal">
        <lane id=":J2-4_7_0" index="0" speed="16.67" length="14.40" shape="601.60,892.80 601.60,907.20"/>
    </edge>
    <edge id=":J2-4_8" function="internal">
        <lane id=":J2-4_8_0" index="0" speed="8.00" length="4.07" shape="601.60,892.80 601.05,896.65 600.96,896.80"/>
    </edge>
    <edge id=":J2-4_14" function="internal">
        <lane id=":J2-4_14_0" index="0" speed="8.00" length="10.13" shape="600.96,896.80 599.40,899.40 596.65,901.05 592.80,901.60"/>
    </edge>
    <edge id=":J2-4_9" function="internal">
        <lane id=":J2-4_9_0" index="0" speed="6.51" length="9.03" shape="592.80,898.40 595.25,898.05 597.00,897.00 598.05,895.25 598.40,892.80"/>
    </edge>
    <edge id=":J2-4_10" function="internal">
        <lane id=":J2-4_10_0" index="0" speed="16.67" length="14.40" shape="592.80,898.40 607.20,898.40"/>
    </edge>
    <edge id=":J2-4_11" function="internal">
        <lane id=":J2-4_11_0" index="0" speed="8.00" length="4.07" shape="592.80,898.40 596.65,898.95 596.80,899.04"/>
    </edge>
    <edge id=":J2-4_15" function="internal">
        <lane id=":J2-4_15_0" index="0" speed="8.00" length="10.13" shape="596.80,899.04 599.40,900.60 601.05,903.35 601.60,907.20"/>
    </edge>
    <edge id=":J2-5_0" function="internal">
        <lane id=":J2-5_0_0" index="0" speed="6.51" length="9.03" shape="598.40,607.20 598.05,604.75 597.00,603.00 595.25,601.95 592.80,601.60"/>
    </edge>
    <edge id=":J2-5_1" function="internal">
        <lane id=":J2-5_1_0" index="0" speed="16.67" length="14.40" shape="598.40,607.20 598.40,592.80"/>
    </edge>
    <edge id=":J2-5_2" function="internal">
        <lane id=":J2-5_2_0" index="0" speed="8.00" length="4.07" shape="598.40,607.20 598.95,603.35 599.04,603.20"/>
    </edge>
    <edge id=":J2-5_12" function="internal">
        <lane id=":J2-5_12_0" index="0" speed="8.00" length="10.13" shape="599.04,603.20 600.60,600.60 603.35,598.95 607.20,598.40"/>
    </edge>
    <edge id=":J2-5_3" function="internal">
        <lane id=":J2-5_3_0" index="0" speed="6.51" length="9.03" shape="607.20,601.60 604.75,601.95 603.00,603.00 601.95,604.75 601.60,607.20"/>
    </edge>
    <edge id=":J2-5_4" function="internal">
        <lane id=":J2-5_4_0" index="0" speed="16.67" length="14.40" shape="607.20,601.60 592.80,601.60"/>
    </edge>
    <edge id=":J2-5_5" function="internal">
        <lane id=":J2-5_5_0" index="0" speed="8.00" length="4.07" shape="607.20,601.60 603.35,601.05 603.20,600.96"/>
    </edge>
    <edge id=":J2-5_13" function="internal">
        <lane id=":J2-5_13_0" index="0" speed="8.00" length="10.13" shape="603.20,600.96 600.60,599.40 598.95,596.65 598.40,592.80"/>
    </edge>
    <edge id=":J2-5_6" function="internal">
        <lane id=":J2-5_6_0" index="0" speed="6.51" length="9.03" shape="601.60,592.80 601.95,595.25 603.00,597.00 604.75,598.05 607.20,598.40"/>
    </edge>
    <edge id=":J2-5_7" function="internal">
        <lane id=":J2-5_7_0" index="0" speed="16.67" length="14.40" shape="601.60,592.80 601.60,607.20"/>
    </edge>
    <edge id=":J2-5_8" function="internal">
        <lane id=":J2-5_8_0" index="0" speed="8.00" length="4.07" shape="601.60,592.80 601.05,596.65 600.96,596.80"/>
    </edge>
    <edge id=":J2-5_14" function="internal">
        <lane id=":J2-5_14_0" index="0" speed="8.00" length="10.13" shape="600.96,596.80 599.40,599.40 596.65,601.05 592.80,601.60"/>
    </edge>
    <edge id=":J2-5_9" function="internal">
        <lane id=":J2-5_9_0" index="0" speed="6.51" length="9.03" shape="592.80,598.40 595.25,598.05 597.00,597.00 598.05,595.25 598.40,592.80"/>
    </edge>
    <edge id=":J2-5_10" function="internal">
        <lane id=":J2-5_10_0" index="0" speed="16.67" length="14.40" shape="592.80,598.40 607.20,598.40"/>
    </edge>
    <edge id=":J2-5_11" function="internal">
        <lane id=":J2-5_11_0" index="0" speed="8.00" length="4.07" shape="592.80,598.40 596.65,598.95 596.80,599.04"/>
    </edge>
    <edge id=":J2-5_15" function="internal">
        <lane id=":J2-5_15_0" index="0" speed="8.00" length="10.13" shape="596.80,599.04 599.40,600.60 601.05,603.35 601.60,607.20"/>
    </edge>
    <edge id=":J2-6_0" function="internal">
        <lane id=":J2-6_0_0" index="0" speed="6.51" length="9.03" shape="598.40,307.20 598.05,304.75 597.00,303.00 595.25,301.95 592.80,301.60"/>
    </edge>
    <edge id=":J2-6_1" function="internal">
        <lane id=":J2-6_1_0" index="0" speed="16.67" length="14.40" shape="598.40,307.20 598.40,292.80"/>
    </edge>
    <edge id=":J2-6_2" function="internal">
        <lane id=":J2-6_2_0" index="0" speed="8.00" length="4.07" shape="598.40,307.20 598.95,303.35 599.04,303.20"/>
    </edge>
    <edge id=":J2-6_12" function="internal">
        <lane id=":J2-6_12_0" index="0" speed="8.00" length="10.13" shape="599.04,303.20 600.60,300.60 603.35,298.95 607.20,298.40"/>
    </edge>
    <edge id=":J2-6_3" function="internal">
        <lane id=":J2-6_3_0" index="0" speed="6.51" length="9.03" shape="607.20,301.60 604.75,301.95 603.00,303.00 601.95,304.75 601.60,307.20"/>
    </edge>
    <edge id=":J2-6_4" function="internal">
        <lane id=":J2-6_4_0" index="0" speed="16.67" length="14.40" shape="607.20,301.60 592.80,301.60"/>
    </edge>
    <edge id=":J2-6_5" function="internal">
        <lane id=":J2-6_5_0" index="0" speed="8.00" length="4.07" shape="607.20,301.60 603.35,301.05 603.20,300.96"/>
    </edge>
    <edge id=":J2-6_13" function="internal">
        <lane id=":J2-6_13_0" index="0" speed="8.00" length="10.13" shape="603.20,300.96 600.60,299.40 598.95,296.65 598.40,292.80"/>
    </edge>
    <edge id=":J2-6_6" function="internal">
        <lane id=":J2-6_6_0" index="0" speed="6.51" length="9.03" shape="601.60,292.80 601.95,295.25 603.00,297.00 604.75,298.05 607.20,298.40"/>
    </edge>
    <edge id=":J2-6_7" function="internal">
        <lane id=":J2-6_7_0" index="0" speed="16.67" length="14.40" shape="601.60,292.80 601.60,307.20"/>
    </edge>
    <edge id=":J2-6_8" function="internal">
        <lane id=":J2-6_8_0" index="0" speed="8.00" length="4.07" shape="601.60,292.80 601.05,296.65 600.96,296.80"/>
    </edge>
    <edge id=":J2-6_14" function="internal">
        <lane id=":J2-6_14_0" index="0" speed="8.00" length="10.13" shape="600.96,296.80 599.40,299.40 596.65,301.05 592.80,301.60"/>
    </edge>
    <edge id=":J2-6_9" function="internal">
        <lane id=":J2-6_9_0" index="0" speed="6.51" length="9.03" shape="592.80,298.40 595.25,298.05 597.00,297.00 598.05,295.25 598.40,292.80"/>
    </edge>
    <edge id=":J2-6_10" function="internal">
        <lane id=":J2-6_10_0" index="0" speed="16.67" length="14.40" shape="592.80,298.40 607.20,298.40"/>
    </edge>
    <edge id=":J2-6_11" function="internal">
        <lane id=":J2-6_11_0" index="0" speed="8.00" length="4.07" shape="592.80,298.40 596.65,298.95 596.80,299.04"/>
    </edge>
    <edge id=":J2-6_15" function="internal">
        <lane id=":J2-6_15_0" index="0" speed="8.00" length="10.13" shape="596.80,299.04 599.40,300.60 601.05,303.35 601.60,307.20"/>
    </edge>
    <edge id=":J3-4_0" function="internal">
        <lane id=":J3-4_0_0" index="0" speed="6.51" length="9.03" shape="898.40,907.20 898.05,904.75 897.00,903.00 895.25,901.95 892.80,901.60"/>
    </edge>
    <edge id=":J3-4_1" function="internal">
        <lane id=":J3-4_1_0" index="0" speed="16.67" length="14.40" shape="898.40,907.20 898.40,892.80"/>
    </edge>
    <edge id=":J3-4_2" function="internal">
        <lane id=":J3-4_2_0" index="0" speed="8.00" length="4.07" shape="898.40,907.20 898.95,903.35 899.04,903.20"/>
    </edge>
    <edge id=":J3-4_12" function="internal">
        <lane id=":J3-4_12_0" index="0" speed="8.00" length="10.13" shape="899.04,903.20 900.60,900.60 903.35,898.95 907.20,898.40"/>
    </edge>
    <edge id=":J3-4_3" function="internal">
        <lane id=":J3-4_3_0" index="0" speed="6.51" length="9.03" shape="907.20,901.60 904.75,901.95 903.00,903.00 901.95,904.75 901.60,907.20"/>
    </edge>
    <edge id=":J3-4_4" function="internal">
        <lane id=":J3-4_4_0" index="0" speed="16.67" length="14.40" shape="907.20,901.60 892.80,901.60"/>
    </edge>
    <edge id=":J3-4_5" function="internal">
        <lane id=":J3-4_5_0" index="0" speed="8.00" length="4.07" shape="907.20,901.60 903.35,901.05 903.20,900.96"/>
    </edge>
    <edge id=":J3-4_13" function="internal">
        <lane id=":J3-4_13_0" index="0" speed="8.00" length="10.13" shape="903.20,900.96 900.60,899.40 898.95,896.65 898.40,892.80"/>
    </edge>
    <edge id=":J3-4_6" function="internal">
        <lane id=":J3-4_6_0" index="0" speed="6.51" length="9.03" shape="901.60,892.80 901.95,895.25 903.00,897.00 904.75,898.05 907.20,898.40"/>
    </edge>
    <edge id=":J3-4_7" function="internal">
        <lane id=":J3-4_7_0" index="0" speed="16.67" length="14.40" shape="901.60,892.80 901.60,907.20"/>
    </edge>
    <edge id=":J3-4_8" function="internal">
        <lane id=":J3-4_8_0" index="0" speed="8.00" length="4.07" shape="901.60,892.80 901.05,896.65 900.96,896.80"/>
    </edge>
    <edge id=":J3-4_14" function="internal">
        <lane id=":J3-4_14_0" index="0" speed="8.00" length="10.13" shape="900.96,896.80 899.40,899.40 896.65,901.05 892.80,901.60"/>
    </edge>
    <edge id=":J3-4_9" function="internal">
        <lane id=":J3-4_9_0" index="0" speed="6.51" length="9.03" shape="892.80,898.40 895.25,898.05 897.00,897.00 898.05,895.25 898.40,892.80"/>
    </edge>
    <edge id=":J3-4_10" function="internal">
        <lane id=":J3-4_10_0" index="0" speed="16.67" length="14.40" shape="892.80,898.40 907.20,898.40"/>
    </edge>
    <edge id=":J3-4_11" function="internal">
        <lane id=":J3-4_11_0" index="0" speed="8.00" length="4.07" shape="892.80,898.40 896.65,898.95 896.80,899.04"/>
    </edge>
    <edge id=":J3-4_15" function="internal">
        <lane id=":J3-4_15_0" index="0" speed="8.00" length="10.13" shape="896.80,899.04 899.40,900.60 901.05,903.35 901.60,907.20"/>
    </edge>
    <edge id=":J3-5_0" function="internal">
        <lane id=":J3-5_0_0" index="0" speed="6.51" length="9.03" shape="898.40,607.20 898.05,604.75 897.00,603.00 895.25,601.95 892.80,601.60"/>
    </edge>
    <edge id=":J3-5_1" function="internal">
        <lane id=":J3-5_1_0" index="0" speed="16.67" length="14.40" shape="898.40,607.20 898.40,592.80"/>
    </edge>
    <edge id=":J3-5_2" function="internal">
        <lane id=":J3-5_2_0" index="0" speed="8.00" length="4.07" shape="898.40,607.20 898.95,603.35 899.04,603.20"/>
    </edge>
    <edge id=":J3-5_12" function="internal">
        <lane id=":J3-5_12_0" index="0" speed="8.00" length="10.13" shape="899.04,603.20 900.60,600.60 903.35,598.95 907.20,598.40"/>
    </edge>
    <edge id=":J3-5_3" function="internal">
        <lane id=":J3-5_3_0" index="0" speed="6.51" length="9.03" shape="907.20,601.60 904.75,601.95 903.00,603.00 901.95,604.75 901.60,607.20"/>
    </edge>
    <edge id=":J3-5_4" function="internal">
        <lane id=":J3-5_4_0" index="0" speed="16.67" length="14.40" shape="907.20,601.60 892.80,601.60"/>
    </edge>
    <edge id=":J3-5_5" function="internal">
        <lane id=":J3-5_5_0" index="0" speed="8.00" length="4.07" shape="907.20,601.60 903.35,601.05 903.20,600.96"/>
    </edge>
    <edge id=":J3-5_13" function="internal">
        <lane id=":J3-5_13_0" index="0" speed="8.00" length="10.13" shape="903.20,600.96 900.60,599.40 898.95,596.65 898.40,592.80"/>
    </edge>
    <edge id=":J3-5_6" function="internal">
        <lane id=":J3-5_6_0" index="0" speed="6.51" length="9.03" shape="901.60,592.80 901.95,595.25 903.00,597.00 904.75,598.05 907.20,598.40"/>
    </edge>
    <edge id=":J3-5_7" function="internal">
        <lane id=":J3-5_7_0" index="0" speed="16.67" length="14.40" shape="901.60,592.80 901.60,607.20"/>
    </edge>
    <edge id=":J3-5_8" function="internal">
        <lane id=":J3-5_8_0" index="0" speed="8.00" length="4.07" shape="901.60,592.80 901.05,596.65 900.96,596.80"/>
    </edge>
    <edge id=":J3-5_14" function="internal">
        <lane id=":J3-5_14_0" index="0" speed="8.00" length="10.13" shape="900.96,596.80 899.40,599.40 896.65,601.05 892.80,601.60"/>
    </edge>
    <edge id=":J3-5_9" function="internal">
        <lane id=":J3-5_9_0" index="0" speed="6.51" length="9.03" shape="892.80,598.40 895.25,598.05 897.00,597.00 898.05,595.25 898.40,592.80"/>
    </edge>
    <edge id=":J3-5_10" function="internal">
        <lane id=":J3-5_10_0" index="0" speed="16.67" length="14.40" shape="892.80,598.40 907.20,598.40"/>
    </edge>
    <edge id=":J3-5_11" function="internal">
        <lane id=":J3-5_11_0" index="0" speed="8.00" length="4.07" shape="892.80,598.40 896.65,598.95 896.80,599.04"/>
    </edge>
    <edge id=":J3-5_15" function="internal">
        <lane id=":J3-5_15_0" index="0" speed="8.00" length="10.13" shape="896.80,599.04 899.40,600.60 901.05,603.35 901.60,607.20"/>
    </edge>
    <edge id=":J3-6_0" function="internal">
        <lane id=":J3-6_0_0" index="0" speed="6.51" length="9.03" shape="898.40,307.20 898.05,304.75 897.00,303.00 895.25,301.95 892.80,301.60"/>
    </edge>
    <edge id=":J3-6_1" function="internal">
        <lane id=":J3-6_1_0" index="0" speed="16.67" length="14.40" shape="898.40,307.20 898.40,292.80"/>
    </edge>
    <edge id=":J3-6_2" function="internal">
        <lane id=":J3-6_2_0" index="0" speed="8.00" length="4.07" shape="898.40,307.20 898.95,303.35 899.04,303.20"/>
    </edge>
    <edge id=":J3-6_12" function="internal">
        <lane id=":J3-6_12_0" index="0" speed="8.00" length="10.13" shape="899.04,303.20 900.60,300.60 903.35,298.95 907.20,298.40"/>
    </edge>
    <edge id=":J3-6_3" function="internal">
        <lane id=":J3-6_3_0" index="0" speed="6.51" length="9.03" shape="907.20,301.60 904.75,301.95 903.00,303.00 901.95,304.75 901.60,307.20"/>
    </edge>
    <edge id=":J3-6_4" function="internal">
        <lane id=":J3-6_4_0" index="0" speed="16.67" length="14.40" shape="907.20,301.60 892.80,301.60"/>
    </edge>
    <edge id=":J3-6_5" function="internal">
        <lane id=":J3-6_5_0" index="0" speed="8.00" length="4.07" shape="907.20,301.60 903.35,301.05 903.20,300.96"/>
    </edge>
    <edge id=":J3-6_13" function="internal">
        <lane id=":J3-6_13_0" index="0" speed="8.00" length="10.13" shape="903.20,300.96 900.60,299.40 898.95,296.65 898.40,292.80"/>
    </edge>
    <edge id=":J3-6_6" function="internal">
        <lane id=":J3-6_6_0" index="0" speed="6.51" length="9.03" shape="901.60,292.80 901.95,295.25 903.00,297.00 904.75,298.05 907.20,298.40"/>
    </edge>
    <edge id=":J3-6_7" function="internal">
        <lane id=":J3-6_7_0" index="0" speed="16.67" length="14.40" shape="901.60,292.80 901.60,307.20"/>
    </edge>
    <edge id=":J3-6_8" function="internal">
        <lane id=":J3-6_8_0" index="0" speed="8.00" length="4.07" shape="901.60,292.80 901.05,296.65 900.96,296.80"/>
    </edge>
    <edge id=":J3-6_14" function="internal">
        <lane id=":J3-6_14_0" index="0" speed="8.00" length="10.13" shape="900.96,296.80 899.40,299.40 896.65,301.05 892.80,301.60"/>
    </edge>
    <edge id=":J3-6_9" function="internal">
        <lane id=":J3-6_9_0" index="0" speed="6.51" length="9.03" shape="892.80,298.40 895.25,298.05 897.00,297.00 898.05,295.25 898.40,292.80"/>
    </edge>
    <edge id=":J3-6_10" function="internal">
        <lane id=":J3-6_10_0" index="0" speed="16.67" length="14.40" shape="892.80,298.40 907.20,298.40"/>
    </edge>
    <edge id=":J3-6_11" function="internal">
        <lane id=":J3-6_11_0" index="0" speed="8.00" length="4.07" shape="892.80,298.40 896.65,298.95 896.80,299.04"/>
    </edge>
    <edge id=":J3-6_15" function="internal">
        <lane id=":J3-6_15_0" index="0" speed="8.00" length="10.13" shape="896.80,299.04 899.40,300.60 901.05,303.35 901.60,307.20"/>
    </edge>

    <edge id="-E0" from="J9" to="J1-6" priority="-1" length="300.00">
        <lane id="-E0_0" index="0" speed="16.67" length="300.00" shape="301.60,0.00 301.60,292.80"/>
    </edge>
    <edge id="-E0.14" from="J1-6" to="J1-5" priority="-1" length="300.00">
        <lane id="-E0.14_0" index="0" speed="16.67" length="300.00" shape="301.60,307.20 301.60,592.80"/>
    </edge>
    <edge id="-E0.165" from="J1-4" to="J1" priority="-1" length="300.00">
        <lane id="-E0.165_0" index="0" speed="16.67" length="300.00" shape="301.60,907.20 301.60,1200.00"/>
    </edge>
    <edge id="-E0.94" from="J1-5" to="J1-4" priority="-1" length="300.00">
        <lane id="-E0.94_0" index="0" speed="16.67" length="300.00" shape="301.60,607.20 301.60,892.80"/>
    </edge>
    <edge id="-E1" from="J8" to="J2-6" priority="-1" length="300.00">
        <lane id="-E1_0" index="0" speed="16.67" length="300.00" shape="601.60,0.00 601.60,292.80"/>
    </edge>
    <edge id="-E1.163" from="J2-4" to="J2" priority="-1" length="300.00">
        <lane id="-E1.163_0" index="0" speed="16.67" length="300.00" shape="601.60,907.20 601.60,1200.00"/>
    </edge>
    <edge id="-E1.96" from="J2-5" to="J2-4" priority="-1" length="300.00">
        <lane id="-E1.96_0" index="0" speed="16.67" length="300.00" shape="601.60,607.20 601.60,892.80"/>
    </edge>
    <edge id="-E11" from="J2-6" to="J2-5" priority="-1" length="300.00">
        <lane id="-E11_0" index="0" speed="16.67" length="300.00" shape="601.60,307.20 601.60,592.80"/>
    </edge>
    <edge id="-E2" from="J7" to="J3-6" priority="-1" length="300.00">
        <lane id="-E2_0" index="0" speed="16.67" length="300.00" shape="901.60,0.00 901.60,292.80"/>
    </edge>
    <edge id="-E2.167" from="J3-4" to="J3" priority="-1" length="300.00">
        <lane id="-E2.167_0" index="0" speed="16.67" length="300.00" shape="901.60,907.20 901.60,1200.00"/>
    </edge>