<?xml version="1.0" encoding="UTF-8"?>

<!-- generated on 2025-03-11 13:09:06 by Eclipse SUMO sumo Version 1.21.0
-->

<sumoConfiguration xmlns:xsi="http://www.w3.org/2001/XMLSchema-instance" xsi:noNamespaceSchemaLocation="http://sumo.dlr.de/xsd/sumoConfiguration.xsd">

    <input>
        <net-file value="test-net.net.xml"/>
        <route-files value="test-net.rou.xml"/>
        <additional-files value="test-net.add.xml"/>
    </input>

</sumoConfiguration>
