<?xml version="1.0" encoding="UTF-8"?>

<!-- generated on 2025-03-11 13:09:06 by Eclipse SUMO netedit Version 1.21.0
-->

<routes xmlns:xsi="http://www.w3.org/2001/XMLSchema-instance" xsi:noNamespaceSchemaLocation="http://sumo.dlr.de/xsd/routes_file.xsd">
    <!-- Vehicles, persons and containers (sorted by depart) -->
    <trip id="t_0" depart="0.00" from="WEC1" to="WEC3"/>
    <trip id="t_1" depart="0.00" from="WEC1" to="SNC1"/>
    <trip id="t_2" depart="0.00" from="WEF1" to="NSF3"/>
    <trip id="t_3" depart="0.00" from="EWF3" to="EWC1"/>
    <flow id="NC-SC-f1" begin="0.00" from="NSC1" to="NSC3" end="3600.00" vehsPerHour="1800"/>
    <flow id="NF-SC-f1" begin="0.00" from="NSF1" to="NSC3" end="3600.00" vehsPerHour="1800"/>
    <flow id="NF-SF-f1" begin="0.00" from="NSF1" to="NSF3" end="3600.00" vehsPerHour="1800"/>
    <flow id="SC-EC-f1" begin="0.00" from="SNC3" to="WEC3" end="3600.00" vehsPerHour="1800"/>
</routes>
