<?xml version="1.0" encoding="UTF-8"?>

<!-- generated on 2025-03-11 13:09:06 by Eclipse SUMO netedit Version 1.21.0
<neteditConfiguration xmlns:xsi="http://www.w3.org/2001/XMLSchema-instance" xsi:noNamespaceSchemaLocation="http://sumo.dlr.de/xsd/neteditConfiguration.xsd">

    <input>
        <sumocfg-file value="C:\Code\Final Year\rl-traffic-light-optimisation\sumo-files\test-net\test-net.sumocfg"/>
        <additional-files value="C:\Code\Final Year\rl-traffic-light-optimisation\sumo-files\test-net\test-net.add.xml"/>
        <route-files value="C:\Code\Final Year\rl-traffic-light-optimisation\sumo-files\test-net\test-net.rou.xml"/>
        <sumo-net-file value="C:\Code\Final Year\rl-traffic-light-optimisation\sumo-files\test-net\test-net.net.xml"/>
    </input>

    <output>
        <output-file value="C:\Code\Final Year\rl-traffic-light-optimisation\sumo-files\test-net\test-net.net.xml"/>
    </output>

    <processing>
        <geometry.min-radius.fix.railways value="false"/>
        <geometry.max-grade.fix value="false"/>
        <offset.disable-normalization value="true"/>
        <lefthand value="0"/>
    </processing>

    <junctions>
        <no-turnarounds value="true"/>
        <junctions.corner-detail value="5"/>
        <junctions.limit-turn-speed value="5.50"/>
        <rectangular-lane-cut value="0"/>
    </junctions>

    <pedestrian>
        <walkingareas value="0"/>
    </pedestrian>

</neteditConfiguration>
-->

<net version="1.20" junctionCornerDetail="5" limitTurnSpeed="5.50" xmlns:xsi="http://www.w3.org/2001/XMLSchema-instance" xsi:noNamespaceSchemaLocation="http://sumo.dlr.de/xsd/net_file.xsd">

    <location netOffset="0.00,0.00" convBoundary="-144.25,-173.52,123.81,36.03" origBoundary="-10000000000.00,-10000000000.00,10000000000.00,10000000000.00" projParameter="!"/>

    <edge id=":CC1_0" function="internal">
        <lane id=":CC1_0_0" index="0" speed="6.52" length="9.08" shape="-38.82,-102.03 -41.30,-101.69 -43.07,-100.64 -44.14,-98.90 -44.50,-96.45"/>
    </edge>
    <edge id=":CC1_1" function="internal">
        <lane id=":CC1_1_0" index="0" speed="13.89" length="20.90" shape="-38.82,-102.03 -59.70,-102.09"/>
        <lane id=":CC1_1_1" index="1" speed="13.89" length="20.90" shape="-38.80,-105.22 -59.72,-105.29"/>
    </edge>
    <edge id=":CC1_3" function="internal">
        <lane id=":CC1_3_0" index="0" speed="9.25" length="4.94" shape="-38.80,-105.22 -43.69,-105.95"/>
    </edge>
    <edge id=":CC1_16" function="internal">
        <lane id=":CC1_16_0" index="0" speed="9.25" length="14.44" shape="-43.69,-105.95 -44.06,-106.00 -47.80,-108.28 -50.02,-112.05 -50.72,-117.32"/>
    </edge>
    <edge id=":CC1_4" function="internal">
        <lane id=":CC1_4_0" index="0" speed="6.50" length="9.03" shape="-44.33,-117.26 -44.00,-114.80 -42.96,-113.05 -41.22,-111.99 -38.77,-111.62"/>
    </edge>
    <edge id=":CC1_5" function="internal">
        <lane id=":CC1_5_0" index="0" speed="13.89" length="20.82" shape="-44.33,-117.26 -44.50,-96.45"/>
        <lane id=":CC1_5_1" index="1" speed="13.89" length="20.82" shape="-47.53,-117.29 -47.70,-96.45"/>
    </edge>
    <edge id=":CC1_7" function="internal">
        <lane id=":CC1_7_0" index="0" speed="9.33" length="4.92" shape="-47.53,-117.29 -48.27,-112.42"/>
    </edge>
    <edge id=":CC1_17" function="internal">
        <lane id=":CC1_17_0" index="0" speed="9.33" length="14.52" shape="-48.27,-112.42 -48.33,-112.07 -50.63,-108.33 -54.43,-106.07 -59.72,-105.29"/>
    </edge>
    <edge id=":CC1_8" function="internal">
        <lane id=":CC1_8_0" index="0" speed="6.61" length="9.24" shape="-59.76,-111.69 -57.23,-112.05 -55.41,-113.12 -54.31,-114.89 -53.92,-117.35"/>
    </edge>
    <edge id=":CC1_9" function="internal">
        <lane id=":CC1_9_0" index="0" speed="13.89" length="20.97" shape="-59.76,-111.69 -38.77,-111.62"/>
        <lane id=":CC1_9_1" index="1" speed="13.89" length="20.97" shape="-59.74,-108.49 -38.79,-108.42"/>
    </edge>
    <edge id=":CC1_11" function="internal">
        <lane id=":CC1_11_0" index="0" speed="9.25" length="5.19" shape="-59.74,-108.49 -54.60,-107.78"/>
    </edge>
    <edge id=":CC1_18" function="internal">
        <lane id=":CC1_18_0" index="0" speed="9.25" length="14.26" shape="-54.60,-107.78 -54.46,-107.76 -50.70,-105.52 -48.44,-101.75 -47.70,-96.45"/>
    </edge>
    <edge id=":CC1_12" function="internal">
        <lane id=":CC1_12_0" index="0" speed="6.50" length="9.07" shape="-54.10,-96.46 -54.44,-98.94 -55.49,-100.70 -57.24,-101.75 -59.70,-102.09"/>
    </edge>
    <edge id=":CC1_13" function="internal">
        <lane id=":CC1_13_0" index="0" speed="13.89" length="20.87" shape="-54.10,-96.46 -53.92,-117.35"/>
        <lane id=":CC1_13_1" index="1" speed="13.89" length="20.87" shape="-50.90,-96.46 -50.72,-117.32"/>
    </edge>
    <edge id=":CC1_15" function="internal">
        <lane id=":CC1_15_0" index="0" speed="9.26" length="5.15" shape="-50.90,-96.46 -50.15,-101.56"/>
    </edge>
    <edge id=":CC1_19" function="internal">
        <lane id=":CC1_19_0" index="0" speed="9.26" length="14.28" shape="-50.15,-101.56 -50.13,-101.72 -47.86,-105.46 -44.08,-107.70 -38.79,-108.42"/>
    </edge>
    <edge id=":CF1_0" function="internal">
        <lane id=":CF1_0_0" index="0" speed="6.50" length="9.03" shape="-54.19,-29.83 -54.55,-32.28 -55.61,-34.02 -57.36,-35.06 -59.82,-35.39"/>
    </edge>
    <edge id=":CF1_1" function="internal">
        <lane id=":CF1_1_0" index="0" speed="13.89" length="14.53" shape="-54.19,-29.83 -54.18,-44.37"/>
        <lane id=":CF1_1_1" index="1" speed="13.89" length="14.53" shape="-50.99,-29.84 -50.98,-44.36"/>
    </edge>
    <edge id=":CF1_3" function="internal">
        <lane id=":CF1_3_0" index="0" speed="8.71" length="3.75" shape="-50.99,-29.84 -50.29,-33.52"/>
    </edge>
    <edge id=":CF1_14" function="internal">
        <lane id=":CF1_14_0" index="0" speed="8.71" length="13.20" shape="-50.29,-33.52 -50.25,-33.71 -48.00,-36.49 -44.24,-38.19 -38.97,-38.79"/>
    </edge>
    <edge id=":CF1_4" function="internal">
        <lane id=":CF1_4_0" index="0" speed="6.56" length="9.16" shape="-38.94,-35.59 -41.42,-35.21 -43.19,-34.13 -44.25,-32.35 -44.59,-29.86"/>
    </edge>
    <edge id=":CF1_5" function="internal">
        <lane id=":CF1_5_0" index="0" speed="13.89" length="20.88" shape="-38.94,-35.59 -59.82,-35.39"/>
    </edge>
    <edge id=":CF1_6" function="internal">
        <lane id=":CF1_6_0" index="0" speed="8.65" length="5.56" shape="-38.94,-35.59 -44.21,-36.09 -44.46,-36.20"/>
    </edge>
    <edge id=":CF1_15" function="internal">
        <lane id=":CF1_15_0" index="0" speed="8.65" length="11.35" shape="-44.46,-36.20 -47.98,-37.72 -50.23,-40.48 -50.98,-44.36"/>
    </edge>
    <edge id=":CF1_7" function="internal">
        <lane id=":CF1_7_0" index="0" speed="6.48" length="9.03" shape="-44.58,-44.35 -44.23,-41.90 -43.18,-40.15 -41.43,-39.12 -38.97,-38.79"/>
    </edge>
    <edge id=":CF1_8" function="internal">
        <lane id=":CF1_8_0" index="0" speed="13.89" length="14.50" shape="-44.58,-44.35 -44.59,-29.86"/>
        <lane id=":CF1_8_1" index="1" speed="13.89" length="14.50" shape="-47.78,-44.36 -47.79,-29.85"/>
    </edge>
    <edge id=":CF1_10" function="internal">
        <lane id=":CF1_10_0" index="0" speed="8.73" length="3.74" shape="-47.78,-44.36 -48.50,-40.69"/>
    </edge>
    <edge id=":CF1_16" function="internal">
        <lane id=":CF1_16_0" index="0" speed="8.73" length="13.23" shape="-48.50,-40.69 -48.54,-40.47 -50.80,-37.68 -54.56,-35.99 -59.82,-35.39"/>
    </edge>
    <edge id=":CF1_11" function="internal">
        <lane id=":CF1_11_0" index="0" speed="6.59" length="9.21" shape="-59.85,-38.59 -57.37,-38.97 -55.60,-40.06 -54.54,-41.86 -54.18,-44.37"/>
    </edge>
    <edge id=":CF1_12" function="internal">
        <lane id=":CF1_12_0" index="0" speed="13.89" length="20.88" shape="-59.85,-38.59 -38.97,-38.79"/>
    </edge>
    <edge id=":CF1_13" function="internal">
        <lane id=":CF1_13_0" index="0" speed="8.66" length="5.55" shape="-59.85,-38.59 -54.58,-38.08 -54.34,-37.98"/>
    </edge>
    <edge id=":CF1_17" function="internal">
        <lane id=":CF1_17_0" index="0" speed="8.66" length="11.33" shape="-54.34,-37.98 -50.82,-36.46 -48.56,-33.72 -47.79,-29.85"/>
    </edge>
    <edge id=":CF2_0" function="internal">
        <lane id=":CF2_0_0" index="0" speed="6.58" length="9.20" shape="38.65,-101.64 36.14,-101.31 34.34,-100.26 33.24,-98.49 32.85,-96.02"/>
    </edge>
    <edge id=":CF2_1" function="internal">
        <lane id=":CF2_1_0" index="0" speed="13.89" length="14.53" shape="38.65,-101.64 24.12,-101.72"/>
        <lane id=":CF2_1_1" index="1" speed="13.89" length="14.53" shape="38.67,-104.84 24.13,-104.92"/>
    </edge>
    <edge id=":CF2_3" function="internal">
        <lane id=":CF2_3_0" index="0" speed="8.66" length="3.71" shape="38.67,-104.84 35.03,-105.58"/>
    </edge>
    <edge id=":CF2_14" function="internal">
        <lane id=":CF2_14_0" index="0" speed="8.66" length="13.17" shape="35.03,-105.58 34.81,-105.62 32.08,-107.90 30.47,-111.67 29.98,-116.93"/>
    </edge>
    <edge id=":CF2_4" function="internal">
        <lane id=":CF2_4_0" index="0" speed="6.50" length="9.03" shape="33.18,-116.89 33.50,-114.43 34.53,-112.67 36.27,-111.61 38.72,-111.24"/>
    </edge>
    <edge id=":CF2_5" function="internal">
        <lane id=":CF2_5_0" index="0" speed="13.89" length="20.87" shape="33.18,-116.89 32.85,-96.02"/>
    </edge>
    <edge id=":CF2_6" function="internal">
        <lane id=":CF2_6_0" index="0" speed="8.73" length="5.60" shape="33.18,-116.89 32.56,-111.63 32.43,-111.35"/>
    </edge>
    <edge id=":CF2_15" function="internal">
        <lane id=":CF2_15_0" index="0" speed="8.73" length="11.37" shape="32.43,-111.35 30.84,-107.89 28.04,-105.65 24.13,-104.92"/>
    </edge>
    <edge id=":CF2_7" function="internal">
        <lane id=":CF2_7_0" index="0" speed="6.58" length="9.20" shape="24.17,-111.32 26.68,-111.66 28.49,-112.71 29.59,-114.46 29.98,-116.93"/>
    </edge>
    <edge id=":CF2_8" function="internal">
        <lane id=":CF2_8_0" index="0" speed="13.89" length="14.55" shape="24.17,-111.32 38.72,-111.24"/>
        <lane id=":CF2_8_1" index="1" speed="13.89" length="14.55" shape="24.15,-108.12 38.69,-108.04"/>
    </edge>
    <edge id=":CF2_10" function="internal">
        <lane id=":CF2_10_0" index="0" speed="8.65" length="3.74" shape="24.15,-108.12 27.82,-107.39"/>
    </edge>
    <edge id=":CF2_16" function="internal">
        <lane id=":CF2_16_0" index="0" speed="8.65" length="13.18" shape="27.82,-107.39 28.03,-107.34 30.77,-105.07 32.38,-101.29 32.85,-96.02"/>
    </edge>
    <edge id=":CF2_11" function="internal">
        <lane id=":CF2_11_0" index="0" speed="6.48" length="9.03" shape="29.65,-96.07 29.33,-98.53 28.31,-100.29 26.57,-101.35 24.12,-101.72"/>
    </edge>
    <edge id=":CF2_12" function="internal">
        <lane id=":CF2_12_0" index="0" speed="13.89" length="20.86" shape="29.65,-96.07 29.98,-116.93"/>
    </edge>
    <edge id=":CF2_13" function="internal">
        <lane id=":CF2_13_0" index="0" speed="8.73" length="5.57" shape="29.65,-96.07 30.28,-101.33 30.40,-101.58"/>
    </edge>
    <edge id=":CF2_17" function="internal">
        <lane id=":CF2_17_0" index="0" speed="8.73" length="11.39" shape="30.40,-101.58 32.01,-105.08 34.81,-107.32 38.69,-108.04"/>
    </edge>
    <edge id=":FF1_0" function="internal">
        <lane id=":FF1_0_0" index="0" speed="6.50" length="9.06" shape="37.50,-36.06 35.03,-35.74 33.26,-34.71 32.19,-32.96 31.82,-30.51"/>
    </edge>
    <edge id=":FF1_1" function="internal">
        <lane id=":FF1_1_0" index="0" speed="13.89" length="14.47" shape="37.50,-36.06 23.03,-36.19"/>
    </edge>
    <edge id=":FF1_2" function="internal">
        <lane id=":FF1_2_0" index="0" speed="8.00" length="4.05" shape="37.50,-36.06 33.65,-36.66 33.52,-36.74"/>
    </edge>
    <edge id=":FF1_12" function="internal">
        <lane id=":FF1_12_0" index="0" speed="8.00" length="10.18" shape="33.52,-36.74 30.92,-38.35 29.31,-41.13 28.82,-45.01"/>
    </edge>
    <edge id=":FF1_3" function="internal">
        <lane id=":FF1_3_0" index="0" speed="6.51" length="9.05" shape="32.02,-44.96 32.33,-42.49 33.35,-40.72 35.09,-39.64 37.54,-39.26"/>
    </edge>
    <edge id=":FF1_4" function="internal">
        <lane id=":FF1_4_0" index="0" speed="13.89" length="14.44" shape="32.02,-44.96 31.82,-30.51"/>
    </edge>
    <edge id=":FF1_5" function="internal">
        <lane id=":FF1_5_0" index="0" speed="8.09" length="4.01" shape="32.02,-44.96 31.41,-41.15 31.32,-41.02"/>
    </edge>
    <edge id=":FF1_13" function="internal">
        <lane id=":FF1_13_0" index="0" speed="8.09" length="10.23" shape="31.32,-41.02 29.70,-38.43 26.91,-36.77 23.03,-36.19"/>
    </edge>
    <edge id=":FF1_6" function="internal">
        <lane id=":FF1_6_0" index="0" speed="6.61" length="9.17" shape="23.00,-39.39 25.51,-39.76 27.32,-40.82 28.42,-42.57 28.82,-45.01"/>
    </edge>
    <edge id=":FF1_7" function="internal">
        <lane id=":FF1_7_0" index="0" speed="13.89" length="14.54" shape="23.00,-39.39 37.54,-39.26"/>
    </edge>
    <edge id=":FF1_8" function="internal">
        <lane id=":FF1_8_0" index="0" speed="7.99" length="4.21" shape="23.00,-39.39 26.88,-38.87 27.13,-38.72"/>
    </edge>
    <edge id=":FF1_14" function="internal">
        <lane id=":FF1_14_0" index="0" speed="7.99" length="10.11" shape="27.13,-38.72 29.64,-37.22 31.29,-34.43 31.82,-30.51"/>
    </edge>
    <edge id=":FF1_9" function="internal">
        <lane id=":FF1_9_0" index="0" speed="6.50" length="9.11" shape="28.62,-30.53 28.28,-33.03 27.24,-34.81 25.49,-35.86 23.03,-36.19"/>
    </edge>
    <edge id=":FF1_10" function="internal">
        <lane id=":FF1_10_0" index="0" speed="13.89" length="14.48" shape="28.62,-30.53 28.82,-45.01"/>
    </edge>
    <edge id=":FF1_11" function="internal">
        <lane id=":FF1_11_0" index="0" speed="8.00" length="4.13" shape="28.62,-30.53 29.20,-34.39 29.32,-34.58"/>
    </edge>
    <edge id=":FF1_15" function="internal">
        <lane id=":FF1_15_0" index="0" speed="8.00" length="10.12" shape="29.32,-34.58 30.88,-37.13 33.66,-38.75 37.54,-39.26"/>
    </edge>

    <edge id="EWC1" from="CC1" to="WC" priority="-1" shape="-56.09,-106.91 -144.25,-106.32">
        <lane id="EWC1_0" index="0" speed="13.89" length="84.52" shape="-59.70,-102.09 -144.22,-101.52"/>
        <lane id="EWC1_1" index="1" speed="13.89" length="84.52" shape="-59.72,-105.29 -144.24,-104.72"/>
    </edge>
    <edge id="EWC2" from="CF2" to="CC1" priority="-1" shape="37.48,-106.45 -56.09,-106.91">
        <lane id="EWC2_0" index="0" speed="13.89" length="62.94" shape="24.12,-101.72 -38.82,-102.03"/>
        <lane id="EWC2_1" index="1" speed="13.89" length="62.94" shape="24.13,-104.92 -38.80,-105.22"/>
    </edge>
    <edge id="EWC3" from="EC" to="CF2" priority="-1" shape="123.81,-105.82 37.48,-106.45">
        <lane id="EWC3_0" index="0" speed="13.89" length="85.13" shape="123.77,-101.02 38.65,-101.64"/>
        <lane id="EWC3_1" index="1" speed="13.89" length="85.13" shape="123.80,-104.22 38.67,-104.84"/>
    </edge>
    <edge id="EWF1" from="CF1" to="WF" priority="-1" shape="-56.38,-37.02 -139.79,-36.28">
        <lane id="EWF1_0" index="0" speed="13.89" length="79.96" shape="-59.82,-35.39 -139.78,-34.68"/>
    </edge>
    <edge id="EWF2" from="FF1" to="CF1" priority="-1" shape="24.77,-37.81 -56.38,-37.02">
        <lane id="EWF2_0" index="0" speed="13.89" length="61.97" shape="23.03,-36.19 -38.94,-35.59"/>
    </edge>
    <edge id="EWF3" from="EF" to="FF1" priority="-1" shape="120.48,-36.66 24.77,-37.81">
        <lane id="EWF3_0" index="0" speed="13.89" length="82.97" shape="120.46,-35.06 37.50,-36.06"/>
    </edge>
    <edge id="NSC1" from="NC" to="CF1" priority="-1" shape="-49.16,36.03 -49.40,-32.28">
        <lane id="NSC1_0" index="0" speed="13.89" length="65.88" shape="-53.96,36.05 -54.19,-29.83"/>
        <lane id="NSC1_1" index="1" speed="13.89" length="65.88" shape="-50.76,36.04 -50.99,-29.84"/>
    </edge>
    <edge id="NSC2" from="CF1" to="CC1" priority="-1" shape="-49.40,-32.28 -49.29,-99.63">
        <lane id="NSC2_0" index="0" speed="13.89" length="52.09" shape="-54.18,-44.37 -54.10,-96.46"/>
        <lane id="NSC2_1" index="1" speed="13.89" length="52.09" shape="-50.98,-44.36 -50.90,-96.46"/>
    </edge>
    <edge id="NSC3" from="CC1" to="SC" priority="-1" shape="-49.29,-99.63 -48.60,-173.52">
        <lane id="NSC3_0" index="0" speed="13.89" length="56.22" shape="-53.92,-117.35 -53.40,-173.56"/>
        <lane id="NSC3_1" index="1" speed="13.89" length="56.22" shape="-50.72,-117.32 -50.20,-173.53"/>
    </edge>
    <edge id="NSF1" from="NF" to="FF1" priority="-1" shape="29.85,34.89 30.24,-33.74">
        <lane id="NSF1_0" index="0" speed="13.89" length="65.41" shape="28.25,34.88 28.62,-30.53"/>
    </edge>
    <edge id="NSF2" from="FF1" to="CF2" priority="-1" shape="30.24,-33.74 31.57,-116.12">
        <lane id="NSF2_0" index="0" speed="13.89" length="51.07" shape="28.82,-45.01 29.65,-96.07"/>
    </edge>
    <edge id="NSF3" from="CF2" to="SF" priority="-1" shape="31.57,-116.12 32.28,-172.58">
        <lane id="NSF3_0" index="0" speed="13.89" length="55.67" shape="29.98,-116.93 30.68,-172.60"/>
    </edge>
    <edge id="SNC1" from="CF1" to="NC" priority="-1" shape="-49.40,-32.28 -49.16,36.03">
        <lane id="SNC1_0" index="0" speed="13.89" length="65.88" shape="-44.59,-29.86 -44.36,36.01"/>
        <lane id="SNC1_1" index="1" speed="13.89" length="65.88" shape="-47.79,-29.85 -47.56,36.02"/>
    </edge>
    <edge id="SNC2" from="CC1" to="CF1" priority="-1" shape="-49.29,-99.63 -49.40,-32.28">
        <lane id="SNC2_0" index="0" speed="13.89" length="52.09" shape="-44.50,-96.45 -44.58,-44.35"/>
        <lane id="SNC2_1" index="1" speed="13.89" length="52.09" shape="-47.70,-96.45 -47.78,-44.36"/>
    </edge>
    <edge id="SNC3" from="SC" to="CC1" priority="-1" shape="-48.60,-173.52 -49.29,-99.63">
        <lane id="SNC3_0" index="0" speed="13.89" length="56.22" shape="-43.80,-173.48 -44.33,-117.26"/>
        <lane id="SNC3_1" index="1" speed="13.89" length="56.22" shape="-47.00,-173.51 -47.53,-117.29"/>
    </edge>
    <edge id="SNF1" from="FF1" to="NF" priority="-1" shape="30.24,-33.74 29.85,34.89">
        <lane id="SNF1_0" index="0" speed="13.89" length="65.41" shape="31.82,-30.51 31.45,34.90"/>
    </edge>
    <edge id="SNF2" from="CF2" to="FF1" priority="-1" shape="31.57,-116.12 30.24,-33.74">
        <lane id="SNF2_0" index="0" speed="13.89" length="51.07" shape="32.85,-96.02 32.02,-44.96"/>
    </edge>
    <edge id="SNF3" from="SF" to="CF2" priority="-1" shape="32.28,-172.58 31.57,-116.12">
        <lane id="SNF3_0" index="0" speed="13.89" length="55.67" shape="33.88,-172.56 33.18,-116.89"/>
    </edge>
    <edge id="WEC1" from="WC" to="CC1" priority="-1" shape="-144.25,-106.32 -56.09,-106.91">
        <lane id="WEC1_0" index="0" speed="13.89" length="84.52" shape="-144.28,-111.12 -59.76,-111.69"/>
        <lane id="WEC1_1" index="1" speed="13.89" length="84.52" shape="-144.26,-107.92 -59.74,-108.49"/>
    </edge>
    <edge id="WEC2" from="CC1" to="CF2" priority="-1" shape="-56.09,-106.91 37.48,-106.45">
        <lane id="WEC2_0" index="0" speed="13.89" length="62.94" shape="-38.77,-111.62 24.17,-111.32"/>
        <lane id="WEC2_1" index="1" speed="13.89" length="62.94" shape="-38.79,-108.42 24.15,-108.12"/>
    </edge>
    <edge id="WEC3" from="CF2" to="EC" priority="-1" shape="37.48,-106.45 123.81,-105.82">
        <lane id="WEC3_0" index="0" speed="13.89" length="85.13" shape="38.72,-111.24 123.85,-110.62"/>
        <lane id="WEC3_1" index="1" speed="13.89" length="85.13" shape="38.69,-108.04 123.82,-107.42"/>
    </edge>
    <edge id="WEF1" from="WF" to="CF1" priority="-1" shape="-139.79,-36.28 -56.38,-37.02">
        <lane id="WEF1_0" index="0" speed="13.89" length="79.96" shape="-139.80,-37.88 -59.85,-38.59"/>
    </edge>
    <edge id="WEF2" from="CF1" to="FF1" priority="-1" shape="-56.38,-37.02 24.77,-37.81">
        <lane id="WEF2_0" index="0" speed="13.89" length="61.97" shape="-38.97,-38.79 23.00,-39.39"/>
    </edge>
    <edge id="WEF3" from="FF1" to="EF" priority="-1" shape="24.77,-37.81 120.48,-36.66">
        <lane id="WEF3_0" index="0" speed="13.89" length="82.97" shape="37.54,-39.26 120.50,-38.26"/>
    </edge>

    <tlLogic id="tlCC1" type="static" programID="0" offset="0">
        <phase duration="42" state="rrrrGGGgrrrrGGGg"/>
        <phase duration="3"  state="rrrryyyyrrrryyyy"/>
        <phase duration="42" state="GGGgrrrrGGGgrrrr"/>
        <phase duration="3"  state="yyyyrrrryyyyrrrr"/>
    </tlLogic>
    <tlLogic id="tlCF1" type="static" programID="0" offset="0">
        <phase duration="42" state="GGGgrrrGGGgrrr"/>
        <phase duration="3"  state="yyyyrrryyyyrrr"/>
        <phase duration="42" state="rrrrGGgrrrrGGg"/>
        <phase duration="3"  state="rrrryyyrrrryyy"/>
    </tlLogic>
    <tlLogic id="tlCF2" type="static" programID="0" offset="0">
        <phase duration="42" state="GGGgrrrGGGgrrr"/>
        <phase duration="3"  state="yyyyrrryyyyrrr"/>
        <phase duration="42" state="rrrrGGgrrrrGGg"/>
        <phase duration="3"  state="rrrryyyrrrryyy"/>
    </tlLogic>
    <tlLogic id="tlFF1" type="static" programID="0" offset="0">
        <phase duration="42" state="rrrGGgrrrGGg"/>
        <phase duration="3"  state="rrryyyrrryyy"/>
        <phase duration="42" state="GGgrrrGGgrrr"/>
        <phase duration="3"  state="yyyrrryyyrrr"/>
    </tlLogic>

    <junction id="CC1" type="traffic_light" x="-52.69" y="-103.27" incLanes="EWC2_0 EWC2_1 SNC3_0 SNC3_1 WEC1_0 WEC1_1 NSC2_0 NSC2_1" intLanes=":CC1_0_0 :CC1_1_0 :CC1_1_1 :CC1_16_0 :CC1_4_0 :CC1_5_0 :CC1_5_1 :CC1_17_0 :CC1_8_0 :CC1_9_0 :CC1_9_1 :CC1_18_0 :CC1_12_0 :CC1_13_0 :CC1_13_1 :CC1_19_0" shape="-38.83,-100.43 -38.76,-113.22 -40.98,-113.68 -41.75,-114.24 -42.30,-115.02 -42.63,-116.02 -42.73,-117.24 -55.52,-117.36 -56.01,-115.11 -56.61,-114.32 -57.43,-113.75 -58.49,-113.41 -59.77,-113.29 -59.69,-100.49 -57.47,-100.05 -56.69,-99.49 -56.14,-98.71 -55.80,-97.70 -55.70,-96.47 -42.90,-96.45 -42.44,-98.67 -41.87,-99.44 -41.08,-99.99 -40.07,-100.32">
        <request index="0"  response="0000000001100000" foes="0000000001100000" cont="0"/>
        <request index="1"  response="1111000011100000" foes="1111100011100000" cont="0"/>
        <request index="2"  response="1111000011100000" foes="1111100011100000" cont="0"/>
        <request index="3"  response="1110011011100000" foes="1110011011100000" cont="1"/>
        <request index="4"  response="0000000000000000" foes="0000011000000000" cont="0"/>
        <request index="5"  response="0000100000001000" foes="1000111000001111" cont="0"/>
        <request index="6"  response="0000100000001000" foes="1000111000001111" cont="0"/>
        <request index="7"  response="0110100000001000" foes="0110111000001110" cont="1"/>
        <request index="8"  response="0110000000000000" foes="0110000000000000" cont="0"/>
        <request index="9"  response="1110000011110000" foes="1110000011111000" cont="0"/>
        <request index="10" response="1110000011110000" foes="1110000011111000" cont="0"/>
        <request index="11" response="1110000011100110" foes="1110000011100110" cont="1"/>
        <request index="12" response="0000000000000000" foes="0000000000000110" cont="0"/>
        <request index="13" response="0000100000001000" foes="0000111110001110" cont="0"/>
        <request index="14" response="0000100000001000" foes="0000111110001110" cont="0"/>
        <request index="15" response="0000100001101000" foes="0000111001101110" cont="1"/>
    </junction>
    <junction id="CF1" type="traffic_light" x="-52.89" y="-34.65" incLanes="NSC1_0 NSC1_1 EWF2_0 SNC2_0 SNC2_1 WEF1_0" intLanes=":CF1_0_0 :CF1_1_0 :CF1_1_1 :CF1_14_0 :CF1_4_0 :CF1_5_0 :CF1_15_0 :CF1_7_0 :CF1_8_0 :CF1_8_1 :CF1_16_0 :CF1_11_0 :CF1_12_0 :CF1_17_0" shape="-55.79,-29.82 -42.99,-29.87 -42.55,-32.14 -41.98,-32.94 -41.19,-33.51 -40.17,-33.86 -38.92,-33.99 -38.99,-40.39 -41.21,-40.81 -41.99,-41.36 -42.54,-42.13 -42.87,-43.13 -42.98,-44.35 -55.78,-44.37 -56.24,-42.06 -56.80,-41.25 -57.60,-40.67 -58.62,-40.32 -59.86,-40.19 -59.81,-33.79 -57.58,-33.36 -56.80,-32.82 -56.24,-32.04 -55.91,-31.05">
        <request index="0"  response="00000000000000" foes="00010000100000" cont="0"/>
        <request index="1"  response="10000001000000" foes="11110001100000" cont="0"/>
        <request index="2"  response="10000001000000" foes="11110001100000" cont="0"/>
        <request index="3"  response="10001111000000" foes="11001111100000" cont="1"/>
        <request index="4"  response="00001100000000" foes="00001100000000" cont="0"/>
        <request index="5"  response="00011100001111" foes="10011100001111" cont="0"/>
        <request index="6"  response="01011100001110" foes="01011100001110" cont="1"/>
        <request index="7"  response="00000000000000" foes="01000000001000" cont="0"/>
        <request index="8"  response="10000001000000" foes="11000001111000" cont="0"/>
        <request index="9"  response="10000001000000" foes="11000001111000" cont="0"/>
        <request index="10" response="10000001000111" foes="11000001100111" cont="1"/>
        <request index="11" response="00000000000110" foes="00000000000110" cont="0"/>
        <request index="12" response="00011110001110" foes="00011111001110" cont="0"/>
        <request index="13" response="00011100101110" foes="00011100101110" cont="1"/>
    </junction>
    <junction id="CF2" type="traffic_light" x="34.52" y="-111.29" incLanes="EWC3_0 EWC3_1 SNF3_0 WEC2_0 WEC2_1 NSF2_0" intLanes=":CF2_0_0 :CF2_1_0 :CF2_1_1 :CF2_14_0 :CF2_4_0 :CF2_5_0 :CF2_15_0 :CF2_7_0 :CF2_8_0 :CF2_8_1 :CF2_16_0 :CF2_11_0 :CF2_12_0 :CF2_17_0" shape="38.64,-100.04 38.73,-112.84 36.51,-113.30 35.74,-113.86 35.20,-114.64 34.88,-115.65 34.78,-116.87 28.38,-116.95 27.89,-114.70 27.30,-113.91 26.49,-113.35 25.44,-113.02 24.17,-112.92 24.11,-100.12 26.33,-99.66 27.09,-99.10 27.64,-98.32 27.95,-97.32 28.05,-96.10 34.45,-95.99 34.94,-98.26 35.53,-99.04 36.34,-99.60 37.37,-99.94">
        <request index="0"  response="00000000000000" foes="00010000100000" cont="0"/>
        <request index="1"  response="10000001000000" foes="11110001100000" cont="0"/>
        <request index="2"  response="10000001000000" foes="11110001100000" cont="0"/>
        <request index="3"  response="10001111000000" foes="11001111100000" cont="1"/>
        <request index="4"  response="00001100000000" foes="00001100000000" cont="0"/>
        <request index="5"  response="00011100001111" foes="10011100001111" cont="0"/>
        <request index="6"  response="01011100001110" foes="01011100001110" cont="1"/>
        <request index="7"  response="00000000000000" foes="01000000001000" cont="0"/>
        <request index="8"  response="10000001000000" foes="11000001111000" cont="0"/>
        <request index="9"  response="10000001000000" foes="11000001111000" cont="0"/>
        <request index="10" response="10000001000111" foes="11000001100111" cont="1"/>
        <request index="11" response="00000000000110" foes="00000000000110" cont="0"/>
        <request index="12" response="00011110001110" foes="00011111001110" cont="0"/>
        <request index="13" response="00011100101110" foes="00011100101110" cont="1"/>
    </junction>
    <junction id="EC" type="dead_end" x="123.81" y="-105.82" incLanes="WEC3_0 WEC3_1" intLanes="" shape="123.81,-105.82 123.86,-112.22 123.81,-105.82"/>
    <junction id="EF" type="dead_end" x="120.48" y="-36.66" incLanes="WEF3_0" intLanes="" shape="120.48,-36.66 120.52,-39.86 120.48,-36.66"/>
    <junction id="FF1" type="traffic_light" x="27.51" y="-35.78" incLanes="EWF3_0 SNF2_0 WEF2_0 NSF1_0" intLanes=":FF1_0_0 :FF1_1_0 :FF1_12_0 :FF1_3_0 :FF1_4_0 :FF1_13_0 :FF1_6_0 :FF1_7_0 :FF1_14_0 :FF1_9_0 :FF1_10_0 :FF1_15_0" shape="37.48,-34.46 37.56,-40.86 35.34,-41.33 34.57,-41.90 34.03,-42.69 33.71,-43.70 33.62,-44.93 27.22,-45.03 26.72,-42.81 26.13,-42.02 25.31,-41.46 24.26,-41.12 22.98,-40.99 23.05,-34.59 25.26,-34.16 26.04,-33.60 26.59,-32.81 26.92,-31.79 27.02,-30.54 33.42,-30.51 33.88,-32.72 34.45,-33.49 35.23,-34.04 36.25,-34.36">
        <request index="0"  response="000000010000" foes="000100010000" cont="0"/>
        <request index="1"  response="111000110000" foes="111100110000" cont="0"/>
        <request index="2"  response="110111110000" foes="110111110000" cont="1"/>
        <request index="3"  response="000000000000" foes="100010000000" cont="0"/>
        <request index="4"  response="000100000100" foes="100110000111" cont="0"/>
        <request index="5"  response="011100000100" foes="111110000110" cont="1"/>
        <request index="6"  response="010000000000" foes="010000000100" cont="0"/>
        <request index="7"  response="110000111000" foes="110000111100" cont="0"/>
        <request index="8"  response="110000110011" foes="110000110111" cont="1"/>
        <request index="9"  response="000000000000" foes="000000100010" cont="0"/>
        <request index="10" response="000100000100" foes="000111100110" cont="0"/>
        <request index="11" response="000100111100" foes="000110111110" cont="1"/>
    </junction>
    <junction id="NC" type="dead_end" x="-49.16" y="36.03" incLanes="SNC1_0 SNC1_1" intLanes="" shape="-49.16,36.03 -42.76,36.01 -49.16,36.03"/>
    <junction id="NF" type="dead_end" x="29.85" y="34.89" incLanes="SNF1_0" intLanes="" shape="29.85,34.89 33.05,34.91 29.85,34.89"/>
    <junction id="SC" type="dead_end" x="-48.60" y="-173.52" incLanes="NSC3_0 NSC3_1" intLanes="" shape="-48.60,-173.52 -55.00,-173.58 -48.60,-173.52"/>
    <junction id="SF" type="dead_end" x="32.28" y="-172.58" incLanes="NSF3_0" intLanes="" shape="32.28,-172.58 29.08,-172.62 32.28,-172.58"/>
    <junction id="WC" type="dead_end" x="-144.25" y="-106.32" incLanes="EWC1_0 EWC1_1" intLanes="" shape="-144.25,-106.32 -144.21,-99.92 -144.25,-106.32"/>