<?xml version="1.0" encoding="UTF-8"?>

<!-- generated on 2025-09-12 21:38:56 by Eclipse SUMO netedit Version 1.21.0
-->

<routes xmlns:xsi="http://www.w3.org/2001/XMLSchema-instance" xsi:noNamespaceSchemaLocation="http://sumo.dlr.de/xsd/routes_file.xsd">
    <!-- Vehicles, persons and containers (sorted by depart) -->
    <flow id="f_0" begin="0.00" from="EJ" to="JW" end="1800.00" vehsPerHour="1000"/>
    <flow id="f_2" begin="0.00" from="NJ" to="JW" end="3600.00" vehsPerHour="1800"/>
    <flow id="f_1" begin="1800.00" from="SJ" to="JN" end="3600.00" vehsPerHour="1000"/>
</routes>
