<?xml version="1.0" encoding="UTF-8"?>

<!-- generated on 2025-09-17 15:44:23 by Eclipse SUMO sumo Version 1.21.0
-->

<sumoConfiguration xmlns:xsi="http://www.w3.org/2001/XMLSchema-instance" xsi:noNamespaceSchemaLocation="http://sumo.dlr.de/xsd/sumoConfiguration.xsd">

    <input>
        <net-file value="double-intersection.net.xml"/>
        <route-files value="double-intersection.rou.xml"/>
        <additional-files value="double-intersection.add.xml"/>
    </input>

</sumoConfiguration>
