<?xml version="1.0" encoding="UTF-8"?>

<!-- generated on 2025-09-17 15:44:23 by Eclipse SUMO netedit Version 1.21.0
<neteditConfiguration xmlns:xsi="http://www.w3.org/2001/XMLSchema-instance" xsi:noNamespaceSchemaLocation="http://sumo.dlr.de/xsd/neteditConfiguration.xsd">

    <input>
        <sumocfg-file value="C:\Code\Final Year\rl-traffic-light-optimisation\environments\double_intersection\sumo_files\double-intersection.sumocfg"/>
        <additional-files value=""/>
        <route-files value="C:\Code\Final Year\rl-traffic-light-optimisation\environments\double_intersection\sumo_files\double-intersection.rou.xml"/>
        <sumo-net-file value="C:\Code\Final Year\rl-traffic-light-optimisation\environments\double_intersection\sumo_files\double-intersection.net.xml"/>
    </input>

    <output>
        <output-file value="C:\Code\Final Year\rl-traffic-light-optimisation\environments\double_intersection\sumo_files\double-intersection.net.xml"/>
    </output>

    <processing>
        <geometry.min-radius.fix.railways value="false"/>
        <geometry.max-grade.fix value="false"/>
        <offset.disable-normalization value="true"/>
        <lefthand value="0"/>
    </processing>

    <junctions>
        <no-turnarounds value="true"/>
        <junctions.corner-detail value="5"/>
        <junctions.limit-turn-speed value="5.50"/>
        <rectangular-lane-cut value="0"/>
    </junctions>

    <pedestrian>
        <walkingareas value="0"/>
    </pedestrian>

</neteditConfiguration>
-->

<net version="1.20" junctionCornerDetail="5" limitTurnSpeed="5.50" xmlns:xsi="http://www.w3.org/2001/XMLSchema-instance" xsi:noNamespaceSchemaLocation="http://sumo.dlr.de/xsd/net_file.xsd">

    <location netOffset="0.00,0.00" convBoundary="-253.20,-78.88,57.93,100.04" origBoundary="-10000000000.00,-10000000000.00,10000000000.00,10000000000.00" projParameter="!"/>

    <edge id=":J1_0" function="internal">
        <lane id=":J1_0_0" index="0" speed="6.47" length="9.03" shape="-51.29,11.61 -51.66,9.16 -52.74,7.43 -54.50,6.42 -56.97,6.13"/>
    </edge>
    <edge id=":J1_1" function="internal">
        <lane id=":J1_1_0" index="0" speed="13.89" length="14.43" shape="-51.29,11.61 -51.43,-2.82"/>
    </edge>
    <edge id=":J1_2" function="internal">
        <lane id=":J1_2_0" index="0" speed="8.00" length="4.09" shape="-51.29,11.61 -50.77,7.73 -50.69,7.58"/>
    </edge>
    <edge id=":J1_12" function="internal">
        <lane id=":J1_12_0" index="0" speed="8.00" length="10.16" shape="-50.69,7.58 -49.15,4.95 -46.40,3.28 -42.55,2.71"/>
    </edge>
    <edge id=":J1_3" function="internal">
        <lane id=":J1_3_0" index="0" speed="6.50" length="9.06" shape="-42.53,5.91 -44.98,6.27 -46.73,7.34 -47.76,9.11 -48.09,11.58"/>
    </edge>
    <edge id=":J1_4" function="internal">
        <lane id=":J1_4_0" index="0" speed="13.89" length="14.44" shape="-42.53,5.91 -56.97,6.13"/>
    </edge>
    <edge id=":J1_5" function="internal">
        <lane id=":J1_5_0" index="0" speed="8.02" length="4.00" shape="-42.53,5.91 -46.39,5.38 -46.48,5.33"/>
    </edge>
    <edge id=":J1_13" function="internal">
        <lane id=":J1_13_0" index="0" speed="8.02" length="10.20" shape="-46.48,5.33 -49.16,3.75 -50.84,1.01 -51.43,-2.82"/>
    </edge>
    <edge id=":J1_6" function="internal">
        <lane id=":J1_6_0" index="0" speed="6.53" length="9.06" shape="-48.23,-2.86 -47.86,-0.41 -46.78,1.33 -45.01,2.37 -42.55,2.71"/>
    </edge>
    <edge id=":J1_7" function="internal">
        <lane id=":J1_7_0" index="0" speed="13.89" length="14.43" shape="-48.23,-2.86 -48.09,11.58"/>
    </edge>
    <edge id=":J1_8" function="internal">
        <lane id=":J1_8_0" index="0" speed="8.06" length="4.05" shape="-48.23,-2.86 -48.75,0.99 -48.83,1.14"/>
    </edge>
    <edge id=":J1_14" function="internal">
        <lane id=":J1_14_0" index="0" speed="8.06" length="10.19" shape="-48.83,1.14 -50.37,3.77 -53.11,5.48 -56.97,6.13"/>
    </edge>
    <edge id=":J1_9" function="internal">
        <lane id=":J1_9_0" index="0" speed="6.58" length="9.14" shape="-57.05,2.93 -54.57,2.51 -52.81,1.42 -51.76,-0.36 -51.43,-2.82"/>
    </edge>
    <edge id=":J1_10" function="internal">
        <lane id=":J1_10_0" index="0" speed="13.89" length="14.51" shape="-57.05,2.93 -42.55,2.71"/>
    </edge>
    <edge id=":J1_11" function="internal">
        <lane id=":J1_11_0" index="0" speed="7.97" length="4.16" shape="-57.05,2.93 -53.16,3.38 -52.95,3.51"/>
    </edge>
    <edge id=":J1_15" function="internal">
        <lane id=":J1_15_0" index="0" speed="7.97" length="10.09" shape="-52.95,3.51 -50.37,4.98 -48.68,7.71 -48.09,11.58"/>
    </edge>
    <edge id=":J4_0" function="internal">
        <lane id=":J4_0_0" index="0" speed="6.62" length="9.25" shape="-153.04,14.33 -153.51,11.85 -154.66,10.11 -156.49,9.08 -159.01,8.79"/>
    </edge>
    <edge id=":J4_1" function="internal">
        <lane id=":J4_1_0" index="0" speed="13.89" length="14.53" shape="-153.04,14.33 -153.75,-0.19"/>
    </edge>
    <edge id=":J4_2" function="internal">
        <lane id=":J4_2_0" index="0" speed="7.97" length="4.04" shape="-153.04,14.33 -152.66,10.43 -152.59,10.32"/>
    </edge>
    <edge id=":J4_12" function="internal">
        <lane id=":J4_12_0" index="0" speed="7.97" length="10.22" shape="-152.59,10.32 -151.11,7.61 -148.41,5.88 -144.55,5.22"/>
    </edge>
    <edge id=":J4_3" function="internal">
        <lane id=":J4_3_0" index="0" speed="6.47" length="9.03" shape="-144.46,8.42 -146.91,8.84 -148.62,9.94 -149.60,11.72 -149.84,14.19"/>
    </edge>
    <edge id=":J4_4" function="internal">
        <lane id=":J4_4_0" index="0" speed="13.89" length="14.55" shape="-144.46,8.42 -159.01,8.79"/>
    </edge>
    <edge id=":J4_5" function="internal">
        <lane id=":J4_5_0" index="0" speed="8.12" length="4.09" shape="-144.46,8.42 -148.35,7.97 -148.51,7.88"/>
    </edge>
    <edge id=":J4_13" function="internal">
        <lane id=":J4_13_0" index="0" speed="8.12" length="10.26" shape="-148.51,7.88 -151.19,6.38 -152.99,3.67 -153.75,-0.19"/>
    </edge>
    <edge id=":J4_6" function="internal">
        <lane id=":J4_6_0" index="0" speed="6.65" length="9.29" shape="-150.55,-0.36 -150.06,2.14 -148.90,3.90 -147.06,4.93 -144.55,5.22"/>
    </edge>
    <edge id=":J4_7" function="internal">
        <lane id=":J4_7_0" index="0" speed="13.89" length="14.56" shape="-150.55,-0.36 -149.84,14.19"/>
    </edge>
    <edge id=":J4_8" function="internal">
        <lane id=":J4_8_0" index="0" speed="7.95" length="4.12" shape="-150.55,-0.36 -150.90,3.56 -150.99,3.73"/>
    </edge>
    <edge id=":J4_14" function="internal">
        <lane id=":J4_14_0" index="0" speed="7.95" length="10.18" shape="-150.99,3.73 -152.43,6.39 -155.13,8.14 -159.01,8.79"/>
    </edge>
    <edge id=":J4_9" function="internal">
        <lane id=":J4_9_0" index="0" speed="6.45" length="9.03" shape="-159.09,5.59 -156.64,5.18 -154.93,4.08 -153.97,2.29 -153.75,-0.19"/>
    </edge>
    <edge id=":J4_10" function="internal">
        <lane id=":J4_10_0" index="0" speed="13.89" length="14.55" shape="-159.09,5.59 -144.55,5.22"/>
    </edge>
    <edge id=":J4_11" function="internal">
        <lane id=":J4_11_0" index="0" speed="8.09" length="4.10" shape="-159.09,5.59 -155.19,6.05 -155.04,6.13"/>
    </edge>
    <edge id=":J4_15" function="internal">
        <lane id=":J4_15_0" index="0" speed="8.09" length="10.24" shape="-155.04,6.13 -152.35,7.63 -150.57,10.35 -149.84,14.19"/>
    </edge>

    <edge id="-E0" from="J1" to="J0" priority="-1">
        <lane id="-E0_0" index="0" speed="13.89" length="100.47" shape="-42.55,2.71 57.92,2.33"/>
    </edge>
    <edge id="-E1" from="J2" to="J1" priority="-1">
        <lane id="-E1_0" index="0" speed="13.89" length="87.28" shape="-50.41,98.89 -51.29,11.61"/>
    </edge>
    <edge id="-E2" from="J3" to="J1" priority="-1">
        <lane id="-E2_0" index="0" speed="13.89" length="73.75" shape="-48.97,-76.61 -48.23,-2.86"/>
    </edge>
    <edge id="-E3" from="J4" to="J1" priority="-1">
        <lane id="-E3_0" index="0" speed="13.89" length="87.53" shape="-144.55,5.22 -57.05,2.93"/>
    </edge>
    <edge id="-E4" from="J5" to="J4" priority="-1">
        <lane id="-E4_0" index="0" speed="13.89" length="85.86" shape="-149.28,100.11 -153.04,14.33"/>
    </edge>
    <edge id="-E5" from="J6" to="J4" priority="-1">
        <lane id="-E5_0" index="0" speed="13.89" length="94.18" shape="-253.24,7.96 -159.09,5.59"/>
    </edge>
    <edge id="-E6" from="J7" to="J4" priority="-1">
        <lane id="-E6_0" index="0" speed="13.89" length="78.72" shape="-154.75,-78.97 -150.55,-0.36"/>
    </edge>
    <edge id="E0" from="J0" to="J1" priority="-1">
        <lane id="E0_0" index="0" speed="13.89" length="100.47" shape="57.94,5.53 -42.53,5.91"/>
    </edge>
    <edge id="E1" from="J1" to="J2" priority="-1">
        <lane id="E1_0" index="0" speed="13.89" length="87.28" shape="-48.09,11.58 -47.21,98.85"/>
    </edge>
    <edge id="E2" from="J1" to="J3" priority="-1">
        <lane id="E2_0" index="0" speed="13.89" length="73.75" shape="-51.43,-2.82 -52.17,-76.57"/>
    </edge>
    <edge id="E3" from="J1" to="J4" priority="-1">
        <lane id="E3_0" index="0" speed="13.89" length="87.53" shape="-56.97,6.13 -144.46,8.42"/>
    </edge>
    <edge id="E4" from="J4" to="J5" priority="-1">
        <lane id="E4_0" index="0" speed="13.89" length="85.86" shape="-149.84,14.19 -146.08,99.97"/>
    </edge>
    <edge id="E5" from="J4" to="J6" priority="-1">
        <lane id="E5_0" index="0" speed="13.89" length="94.18" shape="-159.01,8.79 -253.16,11.16"/>
    </edge>
    <edge id="E6" from="J4" to="J7" priority="-1">
        <lane id="E6_0" index="0" speed="13.89" length="78.72" shape="-153.75,-0.19 -157.95,-78.79"/>
    </edge>

    <tlLogic id="J1" type="static" programID="0" offset="0">
        <phase duration="42" state="GGgrrrGGgrrr"/>
        <phase duration="3"  state="yyyrrryyyrrr"/>
        <phase duration="42" state="rrrGGgrrrGGg"/>
        <phase duration="3"  state="rrryyyrrryyy"/>
    </tlLogic>
    <tlLogic id="J4" type="static" programID="0" offset="0">
        <phase duration="42" state="rrrGGgrrrGGg"/>
        <phase duration="3"  state="rrryyyrrryyy"/>
        <phase duration="42" state="GGgrrrGGgrrr"/>
        <phase duration="3"  state="yyyrrryyyrrr"/>
    </tlLogic>

    <junction id="J0" type="dead_end" x="57.93" y="3.93" incLanes="-E0_0" intLanes="" shape="57.93,3.93 57.92,0.73 57.93,3.93"/>
    <junction id="J1" type="traffic_light" x="-49.76" y="4.34" incLanes="-E1_0 E0_0 -E2_0 -E3_0" intLanes=":J1_0_0 :J1_1_0 :J1_12_0 :J1_3_0 :J1_4_0 :J1_13_0 :J1_6_0 :J1_7_0 :J1_14_0 :J1_9_0 :J1_10_0 :J1_15_0" shape="-52.89,11.62 -46.49,11.56 -46.07,9.32 -45.52,8.53 -44.75,7.97 -43.75,7.63 -42.53,7.51 -42.55,1.11 -44.80,0.68 -45.59,0.12 -46.16,-0.65 -46.51,-1.65 -46.63,-2.87 -53.03,-2.81 -53.47,-0.56 -54.03,0.24 -54.82,0.82 -55.84,1.19 -57.09,1.33 -56.93,7.73 -54.70,8.11 -53.92,8.65 -53.35,9.41 -53.01,10.40">
        <request index="0"  response="000000000000" foes="000100010000" cont="0"/>
        <request index="1"  response="100000100000" foes="111100110000" cont="0"/>
        <request index="2"  response="100111100000" foes="110111110000" cont="1"/>
        <request index="3"  response="000010000000" foes="100010000000" cont="0"/>
        <request index="4"  response="000110000111" foes="100110000111" cont="0"/>
        <request index="5"  response="011110000110" foes="111110000110" cont="1"/>
        <request index="6"  response="000000000000" foes="010000000100" cont="0"/>
        <request index="7"  response="100000100000" foes="110000111100" cont="0"/>
        <request index="8"  response="100000100011" foes="110000110111" cont="1"/>
        <request index="9"  response="000000000010" foes="000000100010" cont="0"/>
        <request index="10" response="000111000110" foes="000111100110" cont="0"/>
        <request index="11" response="000110111110" foes="000110111110" cont="1"/>
    </junction>
    <junction id="J2" type="dead_end" x="-48.81" y="98.87" incLanes="E1_0" intLanes="" shape="-48.81,98.87 -45.61,98.84 -48.81,98.87"/>
    <junction id="J3" type="dead_end" x="-50.57" y="-76.59" incLanes="E2_0" intLanes="" shape="-50.57,-76.59 -53.77,-76.56 -50.57,-76.59"/>
    <junction id="J4" type="traffic_light" x="-151.76" y="7.01" incLanes="-E4_0 E3_0 -E6_0 -E5_0" intLanes=":J4_0_0 :J4_1_0 :J4_12_0 :J4_3_0 :J4_4_0 :J4_13_0 :J4_6_0 :J4_7_0 :J4_14_0 :J4_9_0 :J4_10_0 :J4_15_0" shape="-154.64,14.40 -148.25,14.12 -147.90,11.89 -147.38,11.10 -146.62,10.52 -145.64,10.16 -144.42,10.02 -144.59,3.62 -146.91,3.22 -147.75,2.66 -148.37,1.86 -148.77,0.83 -148.95,-0.44 -155.34,-0.10 -155.67,2.13 -156.18,2.92 -156.93,3.49 -157.91,3.85 -159.13,3.99 -158.97,10.39 -156.64,10.79 -155.81,11.34 -155.20,12.13 -154.81,13.15">
        <request index="0"  response="000000010000" foes="000100010000" cont="0"/>
        <request index="1"  response="111000110000" foes="111100110000" cont="0"/>
        <request index="2"  response="110111110000" foes="110111110000" cont="1"/>
        <request index="3"  response="000000000000" foes="100010000000" cont="0"/>
        <request index="4"  response="000100000100" foes="100110000111" cont="0"/>
        <request index="5"  response="011100000100" foes="111110000110" cont="1"/>
        <request index="6"  response="010000000000" foes="010000000100" cont="0"/>
        <request index="7"  response="110000111000" foes="110000111100" cont="0"/>
        <request index="8"  response="110000110011" foes="110000110111" cont="1"/>
        <request index="9"  response="000000000000" foes="000000100010" cont="0"/>
        <request index="10" response="000100000100" foes="000111100110" cont="0"/>
        <request index="11" response="000100111100" foes="000110111110" cont="1"/>
    </junction>
    <junction id="J5" type="dead_end" x="-147.68" y="100.04" incLanes="E4_0" intLanes="" shape="-147.68,100.04 -144.48,99.90 -147.68,100.04"/>
    <junction id="J6" type="dead_end" x="-253.20" y="9.56" incLanes="E5_0" intLanes="" shape="-253.20,9.56 -253.12,12.76 -253.20,9.56"/>
    <junction id="J7" type="dead_end" x="-156.35" y="-78.88" incLanes="E6_0" intLanes="" shape="-156.35,-78.88 -159.55,-78.71 -156.35,-78.88"/>

    <junction id=":J1_12_0" type="internal" x="-50.69" y="7.58" incLanes=":J1_2_0 -E2_0" intLanes=":J1_4_0 :J1_5_0 :J1_6_0 :J1_7_0 :J1_10_0 :J1_11_0"/>
    <junction id=":J1_13_0" type="internal" x="-46.48" y="5.33" incLanes=":J1_5_0 -E3_0" intLanes=":J1_1_0 :J1_2_0 :J1_7_0 :J1_8_0 :J1_9_0 :J1_10_0"/>
    <junction id=":J1_14_0" type="internal" x="-48.83" y="1.14" incLanes=":J1_8_0 -E1_0" intLanes=":J1_0_0 :J1_1_0 :J1_4_0 :J1_5_0 :J1_10_0 :J1_11_0"/>
    <junction id=":J1_15_0" type="internal" x="-52.95" y="3.51" incLanes=":J1_11_0 E0_0" intLanes=":J1_1_0 :J1_2_0 :J1_3_0 :J1_4_0 :J1_7_0 :J1_8_0"/>
    <junction id=":J4_12_0" type="internal" x="-152.59" y="10.32" incLanes=":J4_2_0 -E6_0" intLanes=":J4_4_0 :J4_5_0 :J4_6_0 :J4_7_0 :J4_10_0 :J4_11_0"/>
    <junction id=":J4_13_0" type="internal" x="-148.51" y="7.88" incLanes=":J4_5_0 -E5_0" intLanes=":J4_1_0 :J4_2_0 :J4_7_0 :J4_8_0 :J4_9_0 :J4_10_0"/>
    <junction id=":J4_14_0" type="internal" x="-150.99" y="3.73" incLanes=":J4_8_0 -E4_0" intLanes=":J4_0_0 :J4_1_0 :J4_4_0 :J4_5_0 :J4_10_0 :J4_11_0"/>
    <junction id=":J4_15_0" type="internal" x="-155.04" y="6.13" incLanes=":J4_11_0 E3_0" intLanes=":J4_1_0 :J4_2_0 :J4_3_0 :J4_4_0 :J4_7_0 :J4_8_0"/>

    <connection from="-E1" to="E3" fromLane="0" toLane="0" via=":J1_0_0" tl="J1" linkIndex="0" dir="r" state="O"/>
    <connection from="-E1" to="E2" fromLane="0" toLane="0" via=":J1_1_0" tl="J1" linkIndex="1" dir="s" state="O"/>
    <connection from="-E1" to="-E0" fromLane="0" toLane="0" via=":J1_2_0" tl="J1" linkIndex="2" dir="l" state="o"/>
    <connection from="-E2" to="-E0" fromLane="0" toLane="0" via=":J1_6_0" tl="J1" linkIndex="6" dir="r" state="O"/>
    <connection from="-E2" to="E1" fromLane="0" toLane="0" via=":J1_7_0" tl="J1" linkIndex="7" dir="s" state="O"/>
    <connection from="-E2" to="E3" fromLane="0" toLane="0" via=":J1_8_0" tl="J1" linkIndex="8" dir="l" state="o"/>
    <connection from="-E3" to="E2" fromLane="0" toLane="0" via=":J1_9_0" tl="J1" linkIndex="9" dir="r" state="o"/>
    <connection from="-E3" to="-E0" fromLane="0" toLane="0" via=":J1_10_0" tl="J1" linkIndex="10" dir="s" state="o"/>
    <connection from="-E3" to="E1" fromLane="0" toLane="0" via=":J1_11_0" tl="J1" linkIndex="11" dir="l" state="o"/>
    <connection from="-E4" to="E5" fromLane="0" toLane="0" via=":J4_0_0" tl="J4" linkIndex="0" dir="r" state="o"/>
    <connection from="-E4" to="E6" fromLane="0" toLane="0" via=":J4_1_0" tl="J4" linkIndex="1" dir="s" state="o"/>
    <connection from="-E4" to="-E3" fromLane="0" toLane="0" via=":J4_2_0" tl="J4" linkIndex="2" dir="l" state="o"/>
    <connection from="-E5" to="E6" fromLane="0" toLane="0" via=":J4_9_0" tl="J4" linkIndex="9" dir="r" state="O"/>
    <connection from="-E5" to="-E3" fromLane="0" toLane="0" via=":J4_10_0" tl="J4" linkIndex="10" dir="s" state="O"/>
    <connection from="-E5" to="E4" fromLane="0" toLane="0" via=":J4_11_0" tl="J4" linkIndex="11" dir="l" state="o"/>
    <connection from="-E6" to="-E3" fromLane="0" toLane="0" via=":J4_6_0" tl="J4" linkIndex="6" dir="r" state="o"/>
    <connection from="-E6" to="E4" fromLane="0" toLane="0" via=":J4_7_0" tl="J4" linkIndex="7" dir="s" state="o"/>
    <connection from="-E6" to="E5" fromLane="0" toLane="0" via=":J4_8_0" tl="J4" linkIndex="8" dir="l" state="o"/>
    <connection from="E0" to="E1" fromLane="0" toLane="0" via=":J1_3_0" tl="J1" linkIndex="3" dir="r" state="o"/>
    <connection from="E0" to="E3" fromLane="0" toLane="0" via=":J1_4_0" tl="J1" linkIndex="4" dir="s" state="o"/>
    <connection from="E0" to="E2" fromLane="0" toLane="0" via=":J1_5_0" tl="J1" linkIndex="5" dir="l" state="o"/>
    <connection from="E3" to="E4" fromLane="0" toLane="0" via=":J4_3_0" tl="J4" linkIndex="3" dir="r" state="O"/>
    <connection from="E3" to="E5" fromLane="0" toLane="0" via=":J4_4_0" tl="J4" linkIndex="4" dir="s" state="O"/>
    <connection from="E3" to="E6" fromLane="0" toLane="0" via=":J4_5_0" tl="J4" linkIndex="5" dir="l" state="o"/>

    <connection from=":J1_0" to="E3" fromLane="0" toLane="0" dir="r" state="M"/>
    <connection from=":J1_1" to="E2" fromLane="0" toLane="0" dir="s" state="M"/>
    <connection from=":J1_2" to="-E0" fromLane="0" toLane="0" via=":J1_12_0" dir="l" state="m"/>
    <connection from=":J1_12" to="-E0" fromLane="0" toLane="0" dir="l" state="M"/>
    <connection from=":J1_3" to="E1" fromLane="0" toLane="0" dir="r" state="M"/>
    <connection from=":J1_4" to="E3" fromLane="0" toLane="0" dir="s" state="M"/>
    <connection from=":J1_5" to="E2" fromLane="0" toLane="0" via=":J1_13_0" dir="l" state="m"/>
    <connection from=":J1_13" to="E2" fromLane="0" toLane="0" dir="l" state="M"/>
    <connection from=":J1_6" to="-E0" fromLane="0" toLane="0" dir="r" state="M"/>
    <connection from=":J1_7" to="E1" fromLane="0" toLane="0" dir="s" state="M"/>
    <connection from=":J1_8" to="E3" fromLane="0" toLane="0" via=":J1_14_0" dir="l" state="m"/>
    <connection from=":J1_14" to="E3" fromLane="0" toLane="0" dir="l" state="M"/>
    <connection from=":J1_9" to="E2" fromLane="0" toLane="0" dir="r" state="M"/>
    <connection from=":J1_10" to="-E0" fromLane="0" toLane="0" dir="s" state="M"/>
    <connection from=":J1_11" to="E1" fromLane="0" toLane="0" via=":J1_15_0" dir="l" state="m"/>
    <connection from=":J1_15" to="E1" fromLane="0" toLane="0" dir="l" state="M"/>
    <connection from=":J4_0" to="E5" fromLane="0" toLane="0" dir="r" state="M"/>
    <connection from=":J4_1" to="E6" fromLane="0" toLane="0" dir="s" state="M"/>
    <connection from=":J4_2" to="-E3" fromLane="0" toLane="0" via=":J4_12_0" dir="l" state="m"/>
    <connection from=":J4_12" to="-E3" fromLane="0" toLane="0" dir="l" state="M"/>
    <connection from=":J4_3" to="E4" fromLane="0" toLane="0" dir="r" state="M"/>
    <connection from=":J4_4" to="E5" fromLane="0" toLane="0" dir="s" state="M"/>
    <connection from=":J4_5" to="E6" fromLane="0" toLane="0" via=":J4_13_0" dir="l" state="m"/>
    <connection from=":J4_13" to="E6" fromLane="0" toLane="0" dir="l" state="M"/>
    <connection from=":J4_6" to="-E3" fromLane="0" toLane="0" dir="r" state="M"/>
    <connection from=":J4_7" to="E4" fromLane="0" toLane="0" dir="s" state="M"/>
    <connection from=":J4_8" to="E5" fromLane="0" toLane="0" via=":J4_14_0" dir="l" state="m"/>
    <connection from=":J4_14" to="E5" fromLane="0" toLane="0" dir="l" state="M"/>
    <connection from=":J4_9" to="E6" fromLane="0" toLane="0" dir="r" state="M"/>
    <connection from=":J4_10" to="-E3" fromLane="0" toLane="0" dir="s" state="M"/>
    <connection from=":J4_11" to="E4" fromLane="0" toLane="0" via=":J4_15_0" dir="l" state="m"/>
    <connection from=":J4_15" to="E4" fromLane="0" toLane="0" dir="l" state="M"/>

</net>
