<?xml version="1.0" encoding="UTF-8"?>

<!-- generated on 2025-09-17 15:44:23 by Eclipse SUMO netedit Version 1.21.0
-->

<routes xmlns:xsi="http://www.w3.org/2001/XMLSchema-instance" xsi:noNamespaceSchemaLocation="http://sumo.dlr.de/xsd/routes_file.xsd">
    <!-- Vehicles, persons and containers (sorted by depart) -->
    <flow id="f_0" begin="0.00" from="E0" to="E6" end="3600.00" probability="0.5"/>
    <flow id="f_1" begin="0.00" from="-E2" to="E1" end="3600.00" probability="0.5"/>
    <flow id="f_2" begin="0.00" from="-E5" to="-E0" end="3600.00" probability="0.5"/>
    <flow id="f_3" begin="0.00" from="-E4" to="E1" end="3600.00" probability="0.5"/>
</routes>
